data_cdm-PcM_O-Zntet
_audit_creation_date              2021-11-06
_audit_creation_method            'Materials Studio'
_symmetry_space_group_name_H-M    'P1'
_symmetry_Int_Tables_number       1
_symmetry_cell_setting            triclinic
loop_
_symmetry_equiv_pos_as_xyz
  x,y,z
_cell_length_a                    17.9089
_cell_length_b                    17.9089
_cell_length_c                    106.8809
_cell_angle_alpha                 89.9977
_cell_angle_beta                  89.9992
_cell_angle_gamma                 90.0000
loop_
_atom_site_label
_atom_site_type_symbol
_atom_site_fract_x
_atom_site_fract_y
_atom_site_fract_z
_atom_site_U_iso_or_equiv
_atom_site_adp_type
_atom_site_occupancy
C1     C     0.00008   0.70734   0.01335   0.00000  Uiso   1.00
C2     C     0.00008   0.64015   0.00654   0.00000  Uiso   1.00
C3     C     0.00008   0.64015   0.99355   0.00000  Uiso   1.00
C4     C     0.00007   0.70734   0.98675   0.00000  Uiso   1.00
C5     C     0.00007   0.77360   0.99367   0.00000  Uiso   1.00
C6     C     0.00007   0.77360   0.00643   0.00000  Uiso   1.00
C7     C     0.00006   0.84734   0.01005   0.00000  Uiso   1.00
N1     N     0.00005   0.89429   0.00005   0.00000  Uiso   1.00
C8     C     0.00005   0.84734   0.99005   0.00000  Uiso   1.00
N2     N     1.00004   0.86896   0.97806   0.00000  Uiso   1.00
C9     C     1.00003   0.94047   0.97444   0.00000  Uiso   1.00
N3     N     0.00004   0.00015   0.98231   0.00000  Uiso   1.00
C10    C     0.00004   0.05984   0.97444   0.00000  Uiso   1.00
C11    C     0.00002   0.03823   0.96209   0.00000  Uiso   1.00
C12    C     1.00001   0.96210   0.96209   0.00000  Uiso   1.00
N4     N     0.00005   0.10601   0.00005   0.00000  Uiso   1.00
C13    C     0.00006   0.15296   0.99005   0.00000  Uiso   1.00
N5     N     0.00005   0.13135   0.97807   0.00000  Uiso   1.00
C14    C     0.00007   0.22670   0.99367   0.00000  Uiso   1.00
C15    C     0.00006   0.22670   0.00643   0.00000  Uiso   1.00
C16    C     0.00005   0.15296   0.01005   0.00000  Uiso   1.00
C17    C     0.99999   0.92078   0.95098   0.00000  Uiso   1.00
C18    C     0.99997   0.96142   0.93972   0.00000  Uiso   1.00
C19    C     0.99998   0.03894   0.93973   0.00000  Uiso   1.00
C20    C     0.00001   0.07956   0.95098   0.00000  Uiso   1.00
C21    C     0.00006   0.29295   0.01335   0.00000  Uiso   1.00
C22    C     0.00007   0.36015   0.00654   0.00000  Uiso   1.00
C23    C     0.00007   0.36015   0.99355   0.00000  Uiso   1.00
C24    C     0.00007   0.29296   0.98675   0.00000  Uiso   1.00
N6     N     0.00003   0.00014   0.01779   0.00000  Uiso   1.00
C25    C     1.00002   0.05982   0.02565   0.00000  Uiso   1.00
N7     N     1.00003   0.13133   0.02203   0.00000  Uiso   1.00
C26    C     1.00000   0.03820   0.03801   0.00000  Uiso   1.00
C27    C     0.00002   0.96207   0.03801   0.00000  Uiso   1.00
C28    C     0.00003   0.94046   0.02565   0.00000  Uiso   1.00
C29    C     0.00000   0.92074   0.04911   0.00000  Uiso   1.00
C30    C     0.99998   0.96137   0.06037   0.00000  Uiso   1.00
C31    C     0.99996   0.03889   0.06037   0.00000  Uiso   1.00
C32    C     0.99998   0.07952   0.04911   0.00000  Uiso   1.00
N8     N     0.00005   0.86895   0.02203   0.00000  Uiso   1.00
H1     H     0.00008   0.70764   0.02348   0.00000  Uiso   1.00
O1     O     0.00008   0.57084   0.01220   0.00000  Uiso   1.00
O2     O     0.00008   0.57084   0.98790   0.00000  Uiso   1.00
H2     H     0.00007   0.70764   0.97662   0.00000  Uiso   1.00
H3     H     0.99998   0.86034   0.95103   0.00000  Uiso   1.00
O3     O     0.99994   0.92767   0.92811   0.00000  Uiso   1.00
O4     O     0.99996   0.07270   0.92811   0.00000  Uiso   1.00
H4     H     0.00001   0.14000   0.95104   0.00000  Uiso   1.00
H5     H     1.00006   0.29265   0.02348   0.00000  Uiso   1.00
O5     O     0.00007   0.42945   0.01220   0.00000  Uiso   1.00
O6     O     0.00008   0.42946   0.98790   0.00000  Uiso   1.00
H6     H     0.00008   0.29266   0.97662   0.00000  Uiso   1.00
H7     H     0.00001   0.86030   0.04906   0.00000  Uiso   1.00
O7     O     0.99996   0.92761   0.07198   0.00000  Uiso   1.00
O8     O     0.99993   0.07263   0.07198   0.00000  Uiso   1.00
H8     H     0.99997   0.13996   0.04906   0.00000  Uiso   1.00
Ni1    Ni    0.00004   0.00015   0.00005   0.00000  Uiso   1.00
C33    C     0.92078   0.00008   0.54910   0.00000  Uiso   1.00
C34    C     0.96141   0.00009   0.56036   0.00000  Uiso   1.00
C35    C     0.03893   0.00009   0.56036   0.00000  Uiso   1.00
C36    C     0.07956   0.00008   0.54910   0.00000  Uiso   1.00
C37    C     0.03824   0.00008   0.53800   0.00000  Uiso   1.00
C38    C     0.96211   0.00008   0.53800   0.00000  Uiso   1.00
C39    C     0.94049   0.00007   0.52564   0.00000  Uiso   1.00
N9     N     0.00018   0.00006   0.51778   0.00000  Uiso   1.00
C40    C     0.05986   0.00007   0.52564   0.00000  Uiso   1.00
N10    N     0.13137   1.00005   0.52202   0.00000  Uiso   1.00
C41    C     0.15299   1.00003   0.51004   0.00000  Uiso   1.00
N11    N     0.10604   0.00004   0.50004   0.00000  Uiso   1.00
C42    C     0.15299   0.00003   0.49004   0.00000  Uiso   1.00
C43    C     0.22673   0.00001   0.49366   0.00000  Uiso   1.00
C44    C     0.22673   1.00001   0.50642   0.00000  Uiso   1.00
N12    N     0.00018   0.00006   0.48230   0.00000  Uiso   1.00
C45    C     0.05987   0.00006   0.47443   0.00000  Uiso   1.00
N13    N     0.13138   0.00004   0.47806   0.00000  Uiso   1.00
C46    C     0.03825   0.00007   0.46208   0.00000  Uiso   1.00
C47    C     0.96212   0.00007   0.46208   0.00000  Uiso   1.00
C48    C     0.94050   0.00006   0.47443   0.00000  Uiso   1.00
C49    C     0.29299   1.00000   0.51334   0.00000  Uiso   1.00
C50    C     0.36018   0.99998   0.50653   0.00000  Uiso   1.00
C51    C     0.36018   0.99998   0.49354   0.00000  Uiso   1.00
C52    C     0.29299  -0.00001   0.48673   0.00000  Uiso   1.00
C53    C     0.92079   0.00007   0.45097   0.00000  Uiso   1.00
C54    C     0.96142   0.00007   0.43972   0.00000  Uiso   1.00
C55    C     0.03894   0.00007   0.43972   0.00000  Uiso   1.00
C56    C     0.07958   0.00007   0.45097   0.00000  Uiso   1.00
N14    N     0.89432   0.00004   0.50004   0.00000  Uiso   1.00
C57    C     0.84737   1.00003   0.49004   0.00000  Uiso   1.00
N15    N     0.86899   1.00004   0.47806   0.00000  Uiso   1.00
C58    C     0.77363   1.00001   0.49366   0.00000  Uiso   1.00
C59    C     0.77363   0.00001   0.50642   0.00000  Uiso   1.00
C60    C     0.84737   0.00003   0.51004   0.00000  Uiso   1.00
C61    C     0.70737   0.00000   0.51334   0.00000  Uiso   1.00
C62    C     0.64018  -0.00002   0.50653   0.00000  Uiso   1.00
C63    C     0.64018   0.99998   0.49354   0.00000  Uiso   1.00
C64    C     0.70737   1.00000   0.48673   0.00000  Uiso   1.00
N16    N     0.86899   0.00005   0.52202   0.00000  Uiso   1.00
H9     H     0.86034   0.00008   0.54905   0.00000  Uiso   1.00
O9     O     0.92765   0.00009   0.57197   0.00000  Uiso   1.00
O10    O     0.07267   0.00009   0.57198   0.00000  Uiso   1.00
H10    H     0.14000   0.00008   0.54905   0.00000  Uiso   1.00
H11    H     0.29269   1.00000   0.52347   0.00000  Uiso   1.00
O11    O     0.42949   0.99996   0.51219   0.00000  Uiso   1.00
O12    O     0.42949   0.99996   0.48789   0.00000  Uiso   1.00
H12    H     0.29269  -0.00001   0.47661   0.00000  Uiso   1.00
H13    H     0.86035   1.00007   0.45103   0.00000  Uiso   1.00
O13    O     0.92767   0.00008   0.42810   0.00000  Uiso   1.00
O14    O     0.07270   0.00008   0.42810   0.00000  Uiso   1.00
H14    H     0.14002   0.00007   0.45102   0.00000  Uiso   1.00
H15    H     0.70767   0.00000   0.52347   0.00000  Uiso   1.00
O15    O     0.57087   0.99997   0.51219   0.00000  Uiso   1.00
O16    O     0.57087   0.99996   0.48789   0.00000  Uiso   1.00
H16    H     0.70768   0.99999   0.47661   0.00000  Uiso   1.00
Ni2    Ni    0.00018   0.00005   0.50004   0.00000  Uiso   1.00
C65    C     0.99992   0.07950   0.11854   0.00000  Uiso   1.00
C66    C     0.99992   0.03887   0.10729   0.00000  Uiso   1.00
C67    C     0.99993   0.96135   0.10729   0.00000  Uiso   1.00
C68    C     0.99994   0.92071   0.11854   0.00000  Uiso   1.00
C69    C     0.99994   0.96204   0.12965   0.00000  Uiso   1.00
C70    C     0.99993   0.03817   0.12965   0.00000  Uiso   1.00
C71    C     0.99995   0.05979   0.14200   0.00000  Uiso   1.00
N17    N     0.99996   0.00010   0.14987   0.00000  Uiso   1.00
C72    C     0.99996   0.94041   0.14200   0.00000  Uiso   1.00
N18    N    -0.00001   0.86890   0.14563   0.00000  Uiso   1.00
C73    C     0.00001   0.84729   0.15761   0.00000  Uiso   1.00
N19    N     1.00001   0.89424   0.16761   0.00000  Uiso   1.00
C74    C     1.00002   0.84729   0.17761   0.00000  Uiso   1.00
C75    C     0.00004   0.77355   0.17399   0.00000  Uiso   1.00
C76    C     0.00003   0.77355   0.16123   0.00000  Uiso   1.00
N20    N     1.00001   0.00009   0.18534   0.00000  Uiso   1.00
C77    C     1.00002   0.94045   0.19321   0.00000  Uiso   1.00
N21    N     1.00003   0.86893   0.18959   0.00000  Uiso   1.00
C78    C     1.00003   0.96210   0.20557   0.00000  Uiso   1.00
C79    C     0.00003   0.03807   0.20557   0.00000  Uiso   1.00
C80    C     0.00001   0.05973   0.19321   0.00000  Uiso   1.00
C81    C     0.00003   0.70729   0.15431   0.00000  Uiso   1.00
C82    C     0.00005   0.64009   0.16112   0.00000  Uiso   1.00
C83    C     0.00006   0.64010   0.17411   0.00000  Uiso   1.00
C84    C     0.00006   0.70729   0.18092   0.00000  Uiso   1.00
C85    C     0.00005   0.07951   0.21663   0.00000  Uiso   1.00
C86    C     1.00007   0.03991   0.22799   0.00000  Uiso   1.00
C87    C     1.00007   0.96025   0.22799   0.00000  Uiso   1.00
C88    C     1.00005   0.92066   0.21663   0.00000  Uiso   1.00
N22    N     0.99999   0.10595   0.16761   0.00000  Uiso   1.00
C89    C     0.00001   0.15289   0.17761   0.00000  Uiso   1.00
N23    N     0.00002   0.13125   0.18959   0.00000  Uiso   1.00
C90    C     0.00001   0.22663   0.17399   0.00000  Uiso   1.00
C91    C     1.00000   0.22664   0.16123   0.00000  Uiso   1.00
C92    C     0.99998   0.15291   0.15761   0.00000  Uiso   1.00
C93    C     1.00000   0.29291   0.15431   0.00000  Uiso   1.00
C94    C     0.00003   0.36010   0.16112   0.00000  Uiso   1.00
C95    C     0.00004   0.36009   0.17411   0.00000  Uiso   1.00
C96    C     0.00003   0.29289   0.18092   0.00000  Uiso   1.00
N24    N     0.99996   0.13130   0.14563   0.00000  Uiso   1.00
H17    H     0.99991   0.13994   0.11860   0.00000  Uiso   1.00
O17    O     0.99991   0.07263   0.09567   0.00000  Uiso   1.00
O18    O     0.99993   0.92760   0.09567   0.00000  Uiso   1.00
H18    H    -0.00005   0.86027   0.11860   0.00000  Uiso   1.00
H19    H     0.00002   0.70758   0.14418   0.00000  Uiso   1.00
O19    O     0.00005   0.57079   0.15546   0.00000  Uiso   1.00
O20    O     0.00008   0.57079   0.17976   0.00000  Uiso   1.00
H20    H     0.00007   0.70760   0.19104   0.00000  Uiso   1.00
H21    H     0.00005   0.13995   0.21648   0.00000  Uiso   1.00
O21    O     1.00010   0.07804   0.23937   0.00000  Uiso   1.00
O22    O     1.00010   0.92212   0.23937   0.00000  Uiso   1.00
H22    H     1.00005   0.86021   0.21648   0.00000  Uiso   1.00
H23    H     0.99999   0.29261   0.14418   0.00000  Uiso   1.00
O23    O     0.00004   0.42940   0.15546   0.00000  Uiso   1.00
O24    O     0.00006   0.42939   0.17976   0.00000  Uiso   1.00
H24    H     0.00005   0.29258   0.19104   0.00000  Uiso   1.00
Ni3    Ni    0.99999   0.00009   0.16761   0.00000  Uiso   1.00
C97    C     0.07953   0.00008   0.61854   0.00000  Uiso   1.00
C98    C     0.03890   0.00009   0.60728   0.00000  Uiso   1.00
C99    C     0.96138   0.00009   0.60728   0.00000  Uiso   1.00
C100   C     0.92074   0.00008   0.61854   0.00000  Uiso   1.00
C101   C     0.96206   0.00007   0.62964   0.00000  Uiso   1.00
C102   C     0.03819   0.00008   0.62964   0.00000  Uiso   1.00
C103   C     0.05981   0.00006   0.64200   0.00000  Uiso   1.00
N25    N     0.00012   0.00006   0.64986   0.00000  Uiso   1.00
C104   C     0.94044   0.00006   0.64200   0.00000  Uiso   1.00
N26    N     0.86893   1.00005   0.64562   0.00000  Uiso   1.00
C105   C     0.84731   0.00004   0.65760   0.00000  Uiso   1.00
N27    N     0.89426   0.00005   0.66760   0.00000  Uiso   1.00
C106   C     0.84732   0.00005   0.67761   0.00000  Uiso   1.00
C107   C     0.77357   0.00003   0.67398   0.00000  Uiso   1.00
C108   C     0.77357   1.00003   0.66123   0.00000  Uiso   1.00
N28    N     0.00011   0.00006   0.68534   0.00000  Uiso   1.00
C109   C     0.94047   0.00007   0.69321   0.00000  Uiso   1.00
N29    N     0.86895   0.00006   0.68959   0.00000  Uiso   1.00
C110   C     0.96212   0.00010   0.70557   0.00000  Uiso   1.00
C111   C     0.03809   0.00010   0.70557   0.00000  Uiso   1.00
C112   C     0.05975   0.00008   0.69321   0.00000  Uiso   1.00
C113   C     0.70731   1.00001   0.65430   0.00000  Uiso   1.00
C114   C     0.64011   0.99999   0.66111   0.00000  Uiso   1.00
C115   C     0.64012   0.99999   0.67410   0.00000  Uiso   1.00
C116   C     0.70732   0.00001   0.68091   0.00000  Uiso   1.00
C117   C     0.07953   0.00013   0.71663   0.00000  Uiso   1.00
C118   C     0.03992   0.00016   0.72799   0.00000  Uiso   1.00
C119   C     0.96026   0.00016   0.72799   0.00000  Uiso   1.00
C120   C     0.92067   0.00013   0.71663   0.00000  Uiso   1.00
N30    N     0.10597   0.00006   0.66760   0.00000  Uiso   1.00
C121   C     0.15291   0.00006   0.67761   0.00000  Uiso   1.00
N31    N     0.13127   1.00007   0.68959   0.00000  Uiso   1.00
C122   C     0.22665   0.00004   0.67399   0.00000  Uiso   1.00
C123   C     0.22666   0.00004   0.66123   0.00000  Uiso   1.00
C124   C     0.15293   0.00005   0.65760   0.00000  Uiso   1.00
C125   C     0.29292   0.00002   0.65430   0.00000  Uiso   1.00
C126   C     0.36011  -0.00000   0.66111   0.00000  Uiso   1.00
C127   C     0.36011   1.00000   0.67410   0.00000  Uiso   1.00
C128   C     0.29291   1.00002   0.68091   0.00000  Uiso   1.00
N32    N     0.13132   0.00006   0.64562   0.00000  Uiso   1.00
H25    H     0.13997   0.00008   0.61859   0.00000  Uiso   1.00
O25    O     0.07266   0.00009   0.59567   0.00000  Uiso   1.00
O26    O     0.92763   0.00009   0.59567   0.00000  Uiso   1.00
H26    H     0.86030   0.00008   0.61859   0.00000  Uiso   1.00
H27    H     0.70760   1.00001   0.64418   0.00000  Uiso   1.00
O27    O     0.57081   0.99997   0.65546   0.00000  Uiso   1.00
O28    O     0.57081   0.99997   0.67976   0.00000  Uiso   1.00
H28    H     0.70762   0.00001   0.69104   0.00000  Uiso   1.00
H29    H     0.13997   1.00013   0.71648   0.00000  Uiso   1.00
O29    O     0.07804   0.00019   0.73937   0.00000  Uiso   1.00
O30    O     0.92213   0.00019   0.73937   0.00000  Uiso   1.00
H30    H     0.86023   0.00013   0.71648   0.00000  Uiso   1.00
H31    H     0.29263   0.00001   0.64418   0.00000  Uiso   1.00
O31    O     0.42942   0.99997   0.65546   0.00000  Uiso   1.00
O32    O     0.42942   0.99998   0.67976   0.00000  Uiso   1.00
H32    H     0.29261   1.00002   0.69104   0.00000  Uiso   1.00
Ni4    Ni    0.00011   0.00005   0.66760   0.00000  Uiso   1.00
C129   C     0.99992   0.92082   0.88155   0.00000  Uiso   1.00
C130   C     0.99992   0.96144   0.89281   0.00000  Uiso   1.00
C131   C     0.99993   0.03896   0.89281   0.00000  Uiso   1.00
C132   C     0.99994   0.07960   0.88155   0.00000  Uiso   1.00
C133   C     0.99994   0.03828   0.87045   0.00000  Uiso   1.00
C134   C     0.99993   0.96215   0.87045   0.00000  Uiso   1.00
C135   C     0.99995   0.94053   0.85809   0.00000  Uiso   1.00
N33    N     0.99996   0.00022   0.85022   0.00000  Uiso   1.00
C136   C     0.99996   0.05990   0.85809   0.00000  Uiso   1.00
N34    N    -0.00001   0.13141   0.85447   0.00000  Uiso   1.00
C137   C     0.00001   0.15303   0.84248   0.00000  Uiso   1.00
N35    N     1.00001   0.10607   0.83248   0.00000  Uiso   1.00
C138   C     1.00002   0.15302   0.82248   0.00000  Uiso   1.00
C139   C     0.00004   0.22676   0.82610   0.00000  Uiso   1.00
C140   C     0.00003   0.22677   0.83886   0.00000  Uiso   1.00
N36    N     1.00000   0.00022   0.81475   0.00000  Uiso   1.00
C141   C     1.00001   0.05987   0.80688   0.00000  Uiso   1.00
N37    N     1.00002   0.13139   0.81050   0.00000  Uiso   1.00
C142   C     1.00002   0.03821   0.79452   0.00000  Uiso   1.00
C143   C     0.00001   0.96224   0.79452   0.00000  Uiso   1.00
C144   C     0.00001   0.94058   0.80688   0.00000  Uiso   1.00
C145   C     0.00003   0.29303   0.84578   0.00000  Uiso   1.00
C146   C     0.00005   0.36022   0.83897   0.00000  Uiso   1.00
C147   C     0.00006   0.36022   0.82598   0.00000  Uiso   1.00
C148   C     0.00006   0.29302   0.81918   0.00000  Uiso   1.00
C149   C     0.00003   0.92079   0.78346   0.00000  Uiso   1.00
C150   C     1.00005   0.96039   0.77210   0.00000  Uiso   1.00
C151   C     1.00005   0.04004   0.77210   0.00000  Uiso   1.00
C152   C     1.00003   0.07965   0.78346   0.00000  Uiso   1.00
N38    N     0.99999   0.89436   0.83248   0.00000  Uiso   1.00
C153   C     0.00001   0.84743   0.82248   0.00000  Uiso   1.00
N39    N     0.00001   0.86906   0.81050   0.00000  Uiso   1.00
C154   C     0.00001   0.77368   0.82610   0.00000  Uiso   1.00
C155   C     1.00000   0.77367   0.83886   0.00000  Uiso   1.00
C156   C     0.99998   0.84741   0.84248   0.00000  Uiso   1.00
C157   C     1.00000   0.70741   0.84578   0.00000  Uiso   1.00
C158   C     0.00003   0.64022   0.83897   0.00000  Uiso   1.00
C159   C     0.00004   0.64023   0.82598   0.00000  Uiso   1.00
C160   C     0.00003   0.70743   0.81918   0.00000  Uiso   1.00
N40    N     0.99996   0.86902   0.85447   0.00000  Uiso   1.00
H33    H     0.99991   0.86038   0.88150   0.00000  Uiso   1.00
O33    O     0.99991   0.92769   0.90442   0.00000  Uiso   1.00
O34    O     0.99993   0.07271   0.90442   0.00000  Uiso   1.00
H34    H    -0.00005   0.14004   0.88150   0.00000  Uiso   1.00
H35    H     0.00002   0.29273   0.85591   0.00000  Uiso   1.00
O35    O     0.00005   0.42952   0.84463   0.00000  Uiso   1.00
O36    O     0.00007   0.42953   0.82033   0.00000  Uiso   1.00
H36    H     0.00006   0.29272   0.80905   0.00000  Uiso   1.00
H37    H     0.00003   0.86035   0.78361   0.00000  Uiso   1.00
O37    O     1.00006   0.92225   0.76072   0.00000  Uiso   1.00
O38    O     1.00006   0.07817   0.76072   0.00000  Uiso   1.00
H38    H     1.00003   0.14009   0.78361   0.00000  Uiso   1.00
H39    H     0.99999   0.70770   0.85591   0.00000  Uiso   1.00
O39    O     0.00003   0.57091   0.84463   0.00000  Uiso   1.00
O40    O     0.00006   0.57092   0.82033   0.00000  Uiso   1.00
H40    H     0.00005   0.70773   0.80905   0.00000  Uiso   1.00
Ni5    Ni    0.99999   0.00022   0.83248   0.00000  Uiso   1.00
C161   C     0.92078   0.00007   0.38154   0.00000  Uiso   1.00
C162   C     0.96141   0.00008   0.39280   0.00000  Uiso   1.00
C163   C     0.03893   0.00008   0.39280   0.00000  Uiso   1.00
C164   C     0.07956   0.00008   0.38154   0.00000  Uiso   1.00
C165   C     0.03823   0.00007   0.37044   0.00000  Uiso   1.00
C166   C     0.96210   0.00007   0.37044   0.00000  Uiso   1.00
C167   C     0.94048   0.00006   0.35808   0.00000  Uiso   1.00
N41    N     0.00016   0.00005   0.35022   0.00000  Uiso   1.00
C168   C     0.05985   0.00006   0.35808   0.00000  Uiso   1.00
N42    N     0.13136   1.00005   0.35446   0.00000  Uiso   1.00
C169   C     0.15297   1.00004   0.34248   0.00000  Uiso   1.00
N43    N     0.10601   0.00004   0.33248   0.00000  Uiso   1.00
C170   C     0.15295   0.00003   0.32247   0.00000  Uiso   1.00
C171   C     0.22670   0.00002   0.32609   0.00000  Uiso   1.00
C172   C     0.22671   1.00002   0.33885   0.00000  Uiso   1.00
N44    N     0.00016   0.00004   0.31474   0.00000  Uiso   1.00
C173   C     0.05980   0.00005   0.30687   0.00000  Uiso   1.00
N45    N     0.13132   0.00004   0.31049   0.00000  Uiso   1.00
C174   C     0.03813   0.00005   0.29451   0.00000  Uiso   1.00
C175   C     0.96217   0.00005   0.29452   0.00000  Uiso   1.00
C176   C     0.94051   0.00005   0.30687   0.00000  Uiso   1.00
C177   C     0.29297   1.00001   0.34577   0.00000  Uiso   1.00
C178   C     0.36016   0.99999   0.33897   0.00000  Uiso   1.00
C179   C     0.36016   0.99998   0.32598   0.00000  Uiso   1.00
C180   C     0.29296   0.00000   0.31917   0.00000  Uiso   1.00
C181   C     0.92072   0.00006   0.28346   0.00000  Uiso   1.00
C182   C     0.96031   0.00007   0.27209   0.00000  Uiso   1.00
C183   C     0.03996   0.00007   0.27209   0.00000  Uiso   1.00
C184   C     0.07957   0.00006   0.28345   0.00000  Uiso   1.00
N46    N     0.89430   0.00004   0.33248   0.00000  Uiso   1.00
C185   C     0.84736   1.00003   0.32248   0.00000  Uiso   1.00
N47    N     0.86900   1.00004   0.31049   0.00000  Uiso   1.00
C186   C     0.77362   1.00002   0.32610   0.00000  Uiso   1.00
C187   C     0.77361   0.00003   0.33885   0.00000  Uiso   1.00
C188   C     0.84735   0.00004   0.34248   0.00000  Uiso   1.00
C189   C     0.70735   0.00001   0.34578   0.00000  Uiso   1.00
C190   C     0.64016  -0.00001   0.33897   0.00000  Uiso   1.00
C191   C     0.64016   0.99999   0.32598   0.00000  Uiso   1.00
C192   C     0.70736   1.00000   0.31917   0.00000  Uiso   1.00
N48    N     0.86897   0.00005   0.35446   0.00000  Uiso   1.00
H41    H     0.86034   0.00007   0.38149   0.00000  Uiso   1.00
O41    O     0.92766   0.00008   0.40441   0.00000  Uiso   1.00
O42    O     0.07269   0.00008   0.40441   0.00000  Uiso   1.00
H42    H     0.14000   0.00007   0.38149   0.00000  Uiso   1.00
H43    H     0.29267   1.00001   0.35590   0.00000  Uiso   1.00
O43    O     0.42946   0.99997   0.34462   0.00000  Uiso   1.00
O44    O     0.42946   0.99996   0.32032   0.00000  Uiso   1.00
H44    H     0.29265  -0.00000   0.30904   0.00000  Uiso   1.00
H45    H     0.86027   1.00006   0.28361   0.00000  Uiso   1.00
O45    O     0.92217   0.00007   0.26072   0.00000  Uiso   1.00
O46    O     0.07808   0.00007   0.26071   0.00000  Uiso   1.00
H46    H     0.14002   0.00006   0.28360   0.00000  Uiso   1.00
H47    H     0.70764   0.00001   0.35590   0.00000  Uiso   1.00
O47    O     0.57085   0.99997   0.34462   0.00000  Uiso   1.00
O48    O     0.57086   0.99996   0.32032   0.00000  Uiso   1.00
H48    H     0.70767   1.00000   0.30904   0.00000  Uiso   1.00
Ni6    Ni    0.00016   0.00003   0.33248   0.00000  Uiso   1.00
Zn1    Zn    0.00012   0.00008   0.25004   0.00000  Uiso   1.00
Zn2    Zn    1.00007   0.00020   0.75004   0.00000  Uiso   1.00
Cu1    Cu    0.00004   0.50009   0.16761   0.00000  Uiso   1.00
Cu2    Cu    0.50011   0.99996   0.66761   0.00000  Uiso   1.00
Cu3    Cu    0.00004   0.50022   0.83248   0.00000  Uiso   1.00
Cu4    Cu    0.50016   0.99995   0.33247   0.00000  Uiso   1.00
Cu5    Cu    0.99992   0.00012   0.08383   0.00000  Uiso   1.00
Cu6    Cu    0.00015   0.00008   0.58382   0.00000  Uiso   1.00
Cu7    Cu    0.99992   0.00019   0.91627   0.00000  Uiso   1.00
Cu8    Cu    0.00018   0.00006   0.41626   0.00000  Uiso   1.00
Cu9    Cu    0.00006   0.50015   0.00005   0.00000  Uiso   1.00
Cu10   Cu    0.50018   0.99995   0.50004   0.00000  Uiso   1.00
loop_
_geom_bond_atom_site_label_1
_geom_bond_atom_site_label_2
_geom_bond_distance
_geom_bond_site_symmetry_2
_ccdc_geom_bond_type
C1     C2      1.406   .     A
C1     C6      1.399   .     A
C1     H1      1.082   .     S
C2     C3      1.388   1_554 A
C2     O1      1.381   .     S
C3     C2      1.388   1_556 A
C3     C4      1.406   .     A
C3     O2      1.381   .     S
C4     C5      1.399   .     A
C4     H2      1.082   .     S
C5     C6      1.363   1_556 A
C5     C8      1.376   .     A
C6     C5      1.363   1_554 A
C6     C7      1.376   .     A
C7     N1      1.360   .     A
C7     N8      1.338   .     A
N1     C8      1.360   1_554 A
N1     Ni1     1.896   1_565 S
C8     N1      1.360   1_556 A
C8     N2      1.338   1_455 A
N2     C8      1.338   1_655 A
N2     C9      1.338   .     A
C9     N3      1.360   1_665 A
C9     C12     1.376   .     A
N3     C9      1.360   1_445 A
N3     C10     1.360   .     A
N3     Ni1     1.896   1_556 S
C10    C11     1.376   .     A
C10    N5      1.338   .     A
C11    C12     1.363   1_445 A
C11    C20     1.399   .     A
C12    C11     1.363   1_665 A
C12    C17     1.399   .     A
N4     C13     1.360   1_554 A
N4     C16     1.360   .     A
N4     Ni1     1.896   .     S
C13    N4      1.360   1_556 A
C13    N5      1.338   .     A
C13    C14     1.376   .     A
C14    C15     1.363   1_556 A
C14    C24     1.399   .     A
C15    C14     1.363   1_554 A
C15    C16     1.376   .     A
C15    C21     1.399   .     A
C16    N7      1.338   1_455 A
C17    C18     1.406   .     A
C17    H3      1.082   .     S
C18    C19     1.388   1_565 A
C18    O3      1.381   .     S
C19    C18     1.388   1_545 A
C19    C20     1.406   1_655 A
C19    O4      1.381   .     S
C20    C19     1.406   1_455 A
C20    H4      1.082   .     S
C21    C22     1.406   .     A
C21    H5      1.082   1_455 S
C22    C23     1.388   1_554 A
C22    O5      1.381   .     S
C23    C22     1.388   1_556 A
C23    C24     1.406   .     A
C23    O6      1.381   .     S
C24    H6      1.082   .     S
N6     C25     1.360   1_455 A
N6     C28     1.360   1_545 A
N6     Ni1     1.896   .     S
C25    N6      1.360   1_655 A
C25    N7      1.338   .     A
C25    C26     1.376   .     A
N7     C16     1.338   1_655 A
C26    C27     1.363   1_645 A
C26    C32     1.399   .     A
C27    C26     1.363   1_465 A
C27    C28     1.376   .     A
C27    C29     1.399   .     A
C28    N6      1.360   1_565 A
C28    N8      1.338   .     A
C29    C30     1.406   1_455 A
C29    H7      1.082   .     S
C30    C29     1.406   1_655 A
C30    C31     1.388   1_565 A
C30    O7      1.381   .     S
C31    C30     1.388   1_545 A
C31    C32     1.406   .     A
C31    O8      1.381   .     S
C32    H8      1.082   .     S
O1     Cu9     1.814   .     S
O2     Cu9     1.814   1_556 S
O3     Cu7     1.814   1_565 S
O4     Cu7     1.814   .     S
H5     C21     1.082   1_655 S
O5     Cu9     1.814   .     S
O6     Cu9     1.814   1_556 S
O7     Cu5     1.814   1_565 S
O8     Cu5     1.814   .     S
Ni1    N1      1.896   1_545 S
Ni1    N3      1.896   1_554 S
C33    C34     1.406   .     A
C33    C38     1.399   .     A
C33    H9      1.082   .     S
C34    C35     1.388   1_655 A
C34    O9      1.381   .     S
C35    C34     1.388   1_455 A
C35    C36     1.406   .     A
C35    O10     1.381   .     S
C36    C37     1.399   .     A
C36    H10     1.082   .     S
C37    C38     1.363   1_455 A
C37    C40     1.376   .     A
C38    C37     1.363   1_655 A
C38    C39     1.376   .     A
C39    N9      1.360   1_655 A
C39    N16     1.338   .     A
N9     C39     1.360   1_455 A
N9     C40     1.360   .     A
N9     Ni2     1.896   .     S
C40    N10     1.338   1_545 A
N10    C40     1.338   1_565 A
N10    C41     1.338   .     A
C41    N11     1.360   1_565 A
C41    C44     1.376   .     A
N11    C41     1.360   1_545 A
N11    C42     1.360   .     A
N11    Ni2     1.896   .     S
C42    C43     1.376   .     A
C42    N13     1.338   .     A
C43    C44     1.363   1_545 A
C43    C52     1.399   .     A
C44    C43     1.363   1_565 A
C44    C49     1.399   .     A
N12    C45     1.360   .     A
N12    C48     1.360   1_455 A
N12    Ni2     1.896   .     S
C45    N13     1.338   .     A
C45    C46     1.376   .     A
C46    C47     1.363   1_455 A
C46    C56     1.399   .     A
C47    C46     1.363   1_655 A
C47    C48     1.376   .     A
C47    C53     1.399   .     A
C48    N12     1.360   1_655 A
C48    N15     1.338   1_545 A
C49    C50     1.406   .     A
C49    H11     1.082   .     S
C50    C51     1.388   .     A
C50    O11     1.381   .     S
C51    C52     1.406   1_565 A
C51    O12     1.381   .     S
C52    C51     1.406   1_545 A
C52    H12     1.082   .     S
C53    C54     1.406   .     A
C53    H13     1.082   1_545 S
C54    C55     1.388   1_655 A
C54    O13     1.381   .     S
C55    C54     1.388   1_455 A
C55    C56     1.406   .     A
C55    O14     1.381   .     S
C56    H14     1.082   .     S
N14    C57     1.360   1_545 A
N14    C60     1.360   .     A
N14    Ni2     1.896   1_655 S
C57    N14     1.360   1_565 A
C57    N15     1.338   .     A
C57    C58     1.376   .     A
N15    C48     1.338   1_565 A
C58    C59     1.363   1_565 A
C58    C64     1.399   .     A
C59    C58     1.363   1_545 A
C59    C60     1.376   .     A
C59    C61     1.399   .     A
C60    N16     1.338   .     A
C61    C62     1.406   .     A
C61    H15     1.082   .     S
C62    C63     1.388   1_545 A
C62    O15     1.381   1_545 S
C63    C62     1.388   1_565 A
C63    C64     1.406   .     A
C63    O16     1.381   .     S
C64    H16     1.082   .     S
O9     Cu6     1.814   1_655 S
O10    Cu6     1.814   .     S
O11    Cu10    1.814   .     S
O12    Cu10    1.814   .     S
H13    C53     1.082   1_565 S
O13    Cu8     1.814   1_655 S
O14    Cu8     1.814   .     S
O15    C62     1.381   1_565 S
O15    Cu10    1.814   .     S
O16    Cu10    1.814   .     S
Ni2    N14     1.896   1_455 S
C65    C66     1.406   .     A
C65    C70     1.399   .     A
C65    H17     1.082   .     S
C66    C67     1.388   1_545 A
C66    O17     1.381   .     S
C67    C66     1.388   1_565 A
C67    C68     1.406   .     A
C67    O18     1.381   .     S
C68    C69     1.399   .     A
C68    H18     1.082   1_655 S
C69    C70     1.363   1_565 A
C69    C72     1.376   .     A
C70    C69     1.363   1_545 A
C70    C71     1.376   .     A
C71    N17     1.360   .     A
C71    N24     1.338   .     A
N17    C72     1.360   1_545 A
N17    Ni3     1.896   .     S
C72    N17     1.360   1_565 A
C72    N18     1.338   1_655 A
N18    C72     1.338   1_455 A
N18    C73     1.338   .     A
C73    N19     1.360   1_455 A
C73    C76     1.376   .     A
N19    C73     1.360   1_655 A
N19    C74     1.360   .     A
N19    Ni3     1.896   1_565 S
C74    C75     1.376   1_655 A
C74    N21     1.338   .     A
C75    C74     1.376   1_455 A
C75    C76     1.363   .     A
C75    C84     1.399   .     A
C76    C81     1.399   .     A
N20    C77     1.360   1_545 A
N20    C80     1.360   1_655 A
N20    Ni3     1.896   .     S
C77    N20     1.360   1_565 A
C77    N21     1.338   .     A
C77    C78     1.377   .     A
C78    C79     1.360   1_665 A
C78    C88     1.396   .     A
C79    C78     1.360   1_445 A
C79    C80     1.377   .     A
C79    C85     1.396   .     A
C80    N20     1.360   1_455 A
C80    N23     1.338   .     A
C81    C82     1.406   .     A
C81    H19     1.082   .     S
C82    C83     1.388   .     A
C82    O19     1.381   .     S
C83    C84     1.406   .     A
C83    O20     1.381   .     S
C84    H20     1.082   .     S
C85    C86     1.406   1_455 A
C85    H21     1.083   .     S
C86    C85     1.406   1_655 A
C86    C87     1.427   1_545 A
C86    O21     1.395   .     S
C87    C86     1.427   1_565 A
C87    C88     1.406   .     A
C87    O22     1.395   .     S
C88    H22     1.083   .     S
N22    C89     1.360   1_655 A
N22    C92     1.360   .     A
N22    Ni3     1.896   .     S
C89    N22     1.360   1_455 A
C89    N23     1.338   .     A
C89    C90     1.376   .     A
C90    C91     1.363   1_455 A
C90    C96     1.399   .     A
C91    C90     1.363   1_655 A
C91    C92     1.376   .     A
C91    C93     1.399   .     A
C92    N24     1.338   .     A
C93    C94     1.406   1_655 A
C93    H23     1.082   .     S
C94    C93     1.406   1_455 A
C94    C95     1.388   .     A
C94    O23     1.381   .     S
C95    C96     1.406   .     A
C95    O24     1.381   .     S
C96    H24     1.082   .     S
O17    Cu5     1.814   .     S
O18    Cu5     1.814   1_565 S
H18    C68     1.082   1_455 S
O19    Cu1     1.814   .     S
O20    Cu1     1.814   .     S
O21    Zn1     1.803   1_655 S
O22    Zn1     1.803   1_665 S
O23    Cu1     1.814   .     S
O24    Cu1     1.814   .     S
Ni3    N19     1.896   1_545 S
C97    C98     1.406   .     A
C97    C102    1.399   .     A
C97    H25     1.082   .     S
C98    C99     1.388   1_455 A
C98    O25     1.381   .     S
C99    C98     1.388   1_655 A
C99    C100    1.406   .     A
C99    O26     1.381   .     S
C100   C101    1.399   .     A
C100   H26     1.082   .     S
C101   C102    1.363   1_655 A
C101   C104    1.376   .     A
C102   C101    1.363   1_455 A
C102   C103    1.376   .     A
C103   N25     1.360   .     A
C103   N32     1.338   .     A
N25    C104    1.360   1_455 A
N25    Ni4     1.896   .     S
C104   N25     1.360   1_655 A
C104   N26     1.338   1_545 A
N26    C104    1.338   1_565 A
N26    C105    1.338   1_565 A
C105   N26     1.338   1_545 A
C105   N27     1.360   .     A
C105   C108    1.376   1_545 A
N27    C106    1.360   .     A
N27    Ni4     1.896   1_655 S
C106   C107    1.376   .     A
C106   N29     1.338   .     A
C107   C108    1.363   1_545 A
C107   C116    1.399   .     A
C108   C105    1.376   1_565 A
C108   C107    1.363   1_565 A
C108   C113    1.399   .     A
N28    C109    1.360   1_455 A
N28    C112    1.360   .     A
N28    Ni4     1.896   .     S
C109   N28     1.360   1_655 A
C109   N29     1.338   .     A
C109   C110    1.377   .     A
C110   C111    1.360   1_655 A
C110   C120    1.396   .     A
C111   C110    1.360   1_455 A
C111   C112    1.377   .     A
C111   C117    1.396   .     A
C112   N31     1.338   1_545 A
C113   C114    1.406   .     A
C113   H27     1.082   .     S
C114   C115    1.388   .     A
C114   O27     1.381   .     S
C115   C116    1.406   1_565 A
C115   O28     1.381   .     S
C116   C115    1.406   1_545 A
C116   H28     1.082   .     S
C117   C118    1.406   .     A
C117   H29     1.083   1_545 S
C118   C119    1.427   1_455 A
C118   O29     1.395   .     S
C119   C118    1.427   1_655 A
C119   C120    1.406   .     A
C119   O30     1.395   .     S
C120   H30     1.083   .     S
N30    C121    1.360   .     A
N30    C124    1.360   .     A
N30    Ni4     1.896   .     S
C121   N31     1.338   1_545 A
C121   C122    1.376   .     A
N31    C112    1.338   1_565 A
N31    C121    1.338   1_565 A
C122   C123    1.363   .     A
C122   C128    1.399   1_545 A
C123   C124    1.376   .     A
C123   C125    1.399   .     A
C124   N32     1.338   .     A
C125   C126    1.406   .     A
C125   H31     1.082   .     S
C126   C127    1.388   1_545 A
C126   O31     1.381   1_545 S
C127   C126    1.388   1_565 A
C127   C128    1.406   .     A
C127   O32     1.381   .     S
C128   C122    1.399   1_565 A
C128   H32     1.082   .     S
O25    Cu6     1.814   .     S
O26    Cu6     1.814   1_655 S
O27    Cu2     1.814   .     S
O28    Cu2     1.814   .     S
H29    C117    1.083   1_565 S
O29    Zn2     1.803   1_455 S
O30    Zn2     1.803   .     S
O31    C126    1.381   1_565 S
O31    Cu2     1.814   .     S
O32    Cu2     1.814   .     S
Ni4    N27     1.896   1_455 S
C129   C130    1.406   .     A
C129   C134    1.399   .     A
C129   H33     1.082   .     S
C130   C131    1.388   1_565 A
C130   O33     1.381   .     S
C131   C130    1.388   1_545 A
C131   C132    1.406   .     A
C131   O34     1.381   .     S
C132   C133    1.399   .     A
C132   H34     1.082   1_655 S
C133   C134    1.363   1_545 A
C133   C136    1.376   .     A
C134   C133    1.363   1_565 A
C134   C135    1.376   .     A
C135   N33     1.360   1_565 A
C135   N40     1.338   .     A
N33    C135    1.360   1_545 A
N33    C136    1.360   .     A
N33    Ni5     1.896   .     S
C136   N34     1.338   1_655 A
N34    C136    1.338   1_455 A
N34    C137    1.338   .     A
C137   N35     1.360   1_455 A
C137   C140    1.376   .     A
N35    C137    1.360   1_655 A
N35    C138    1.360   .     A
N35    Ni5     1.896   .     S
C138   C139    1.376   1_655 A
C138   N37     1.338   .     A
C139   C138    1.376   1_455 A
C139   C140    1.363   .     A
C139   C148    1.399   .     A
C140   C145    1.399   .     A
N36    C141    1.360   .     A
N36    C144    1.360   1_645 A
N36    Ni5     1.896   .     S
C141   N37     1.338   .     A
C141   C142    1.377   .     A
C142   C143    1.360   1_645 A
C142   C152    1.396   .     A
C143   C142    1.360   1_465 A
C143   C144    1.377   .     A
C143   C149    1.396   .     A
C144   N36     1.360   1_465 A
C144   N39     1.338   .     A
C145   C146    1.406   .     A
C145   H35     1.082   .     S
C146   C147    1.388   .     A
C146   O35     1.381   .     S
C147   C148    1.406   .     A
C147   O36     1.381   .     S
C148   H36     1.082   .     S
C149   C150    1.406   1_455 A
C149   H37     1.083   .     S
C150   C149    1.406   1_655 A
C150   C151    1.427   1_565 A
C150   O37     1.395   .     S
C151   C150    1.427   1_545 A
C151   C152    1.406   .     A
C151   O38     1.395   .     S
C152   H38     1.083   .     S
N38    C153    1.360   1_655 A
N38    C156    1.360   .     A
N38    Ni5     1.896   1_565 S
C153   N38     1.360   1_455 A
C153   N39     1.338   .     A
C153   C154    1.376   .     A
C154   C155    1.363   1_455 A
C154   C160    1.399   .     A
C155   C154    1.363   1_655 A
C155   C156    1.376   .     A
C155   C157    1.399   .     A
C156   N40     1.338   .     A
C157   C158    1.406   1_655 A
C157   H39     1.082   .     S
C158   C157    1.406   1_455 A
C158   C159    1.388   .     A
C158   O39     1.381   .     S
C159   C160    1.406   .     A
C159   O40     1.381   .     S
C160   H40     1.082   .     S
O33    Cu7     1.814   1_565 S
O34    Cu7     1.814   .     S
H34    C132    1.082   1_455 S
O35    Cu3     1.814   .     S
O36    Cu3     1.814   .     S
O37    Zn2     1.803   1_565 S
O38    Zn2     1.803   .     S
O39    Cu3     1.814   .     S
O40    Cu3     1.814   .     S
Ni5    N38     1.896   1_545 S
C161   C162    1.406   .     A
C161   C166    1.399   .     A
C161   H41     1.082   .     S
C162   C163    1.388   1_655 A
C162   O41     1.381   .     S
C163   C162    1.388   1_455 A
C163   C164    1.406   .     A
C163   O42     1.381   .     S
C164   C165    1.399   .     A
C164   H42     1.082   .     S
C165   C166    1.363   1_455 A
C165   C168    1.376   .     A
C166   C165    1.363   1_655 A
C166   C167    1.376   .     A
C167   N41     1.360   1_655 A
C167   N48     1.338   .     A
N41    C167    1.360   1_455 A
N41    C168    1.360   .     A
N41    Ni6     1.896   .     S
C168   N42     1.338   1_545 A
N42    C168    1.338   1_565 A
N42    C169    1.338   .     A
C169   N43     1.360   1_565 A
C169   C172    1.376   .     A
N43    C169    1.360   1_545 A
N43    C170    1.360   .     A
N43    Ni6     1.896   .     S
C170   C171    1.376   .     A
C170   N45     1.338   .     A
C171   C172    1.363   1_545 A
C171   C180    1.399   .     A
C172   C171    1.363   1_565 A
C172   C177    1.399   .     A
N44    C173    1.360   .     A
N44    C176    1.360   1_455 A
N44    Ni6     1.896   .     S
C173   N45     1.338   .     A
C173   C174    1.377   .     A
C174   C175    1.360   1_455 A
C174   C184    1.396   .     A
C175   C174    1.360   1_655 A
C175   C176    1.377   .     A
C175   C181    1.396   .     A
C176   N44     1.360   1_655 A
C176   N47     1.338   1_545 A
C177   C178    1.406   .     A
C177   H43     1.082   .     S
C178   C179    1.388   .     A
C178   O43     1.381   .     S
C179   C180    1.406   1_565 A
C179   O44     1.381   .     S
C180   C179    1.406   1_545 A
C180   H44     1.082   .     S
C181   C182    1.406   .     A
C181   H45     1.083   1_545 S
C182   C183    1.427   1_655 A
C182   O45     1.395   .     S
C183   C182    1.427   1_455 A
C183   C184    1.406   .     A
C183   O46     1.395   .     S
C184   H46     1.083   .     S
N46    C185    1.360   1_545 A
N46    C188    1.360   .     A
N46    Ni6     1.896   1_655 S
C185   N46     1.360   1_565 A
C185   N47     1.338   .     A
C185   C186    1.376   .     A
N47    C176    1.338   1_565 A
C186   C187    1.363   1_565 A
C186   C192    1.399   .     A
C187   C186    1.363   1_545 A
C187   C188    1.376   .     A
C187   C189    1.399   .     A
C188   N48     1.338   .     A
C189   C190    1.406   .     A
C189   H47     1.082   .     S
C190   C191    1.388   1_545 A
C190   O47     1.381   1_545 S
C191   C190    1.388   1_565 A
C191   C192    1.406   .     A
C191   O48     1.381   .     S
C192   H48     1.082   .     S
O41    Cu8     1.814   1_655 S
O42    Cu8     1.814   .     S
O43    Cu4     1.814   .     S
O44    Cu4     1.814   .     S
H45    C181    1.083   1_565 S
O45    Zn1     1.803   1_655 S
O46    Zn1     1.803   .     S
O47    C190    1.381   1_565 S
O47    Cu4     1.814   .     S
O48    Cu4     1.814   .     S
Ni6    N46     1.896   1_455 S
Zn1    O45     1.803   1_455 S
Zn1    O21     1.803   1_455 S
Zn1    O22     1.803   1_445 S
Zn2    O37     1.803   1_545 S
Zn2    O29     1.803   1_655 S
Cu5    O18     1.814   1_545 S
Cu5    O7      1.814   1_545 S
Cu6    O26     1.814   1_455 S
Cu6    O9      1.814   1_455 S
Cu7    O3      1.814   1_545 S
Cu7    O33     1.814   1_545 S
Cu8    O13     1.814   1_455 S
Cu8    O41     1.814   1_455 S
Cu9    O2      1.814   1_554 S
Cu9    O6      1.814   1_554 S
