data_cdm-PcMN_O-Zntet
_audit_creation_date              2021-11-06
_audit_creation_method            'Materials Studio'
_symmetry_space_group_name_H-M    'P1'
_symmetry_Int_Tables_number       1
_symmetry_cell_setting            triclinic
loop_
_symmetry_equiv_pos_as_xyz
  x,y,z
_cell_length_a                    22.7688
_cell_length_b                    22.7688
_cell_length_c                    136.0444
_cell_angle_alpha                 90.0132
_cell_angle_beta                  90.0143
_cell_angle_gamma                 89.9930
loop_
_atom_site_label
_atom_site_type_symbol
_atom_site_fract_x
_atom_site_fract_y
_atom_site_fract_z
_atom_site_U_iso_or_equiv
_atom_site_adp_type
_atom_site_occupancy
C1     C     0.00004   0.77459   0.99849   0.00000  Uiso   1.00
C2     C     0.00007   0.72092   0.00368   0.00000  Uiso   1.00
C3     C     0.00007   0.72094   0.01422   0.00000  Uiso   1.00
C4     C     0.00004   0.77462   0.01941   0.00000  Uiso   1.00
C5     C     0.00001   0.82644   0.01394   0.00000  Uiso   1.00
C6     C     0.00001   0.82642   0.00396   0.00000  Uiso   1.00
C7     C    -0.00001   0.88443   0.00110   0.00000  Uiso   1.00
N1     N    -0.00002   0.92138   0.00895   0.00000  Uiso   1.00
C8     C    -0.00001   0.88445   0.01680   0.00000  Uiso   1.00
N2     N     0.00004   0.90147   0.02621   0.00000  Uiso   1.00
C9     C     0.00003   0.95773   0.02906   0.00000  Uiso   1.00
N3     N    -0.00002   0.00462   0.02288   0.00000  Uiso   1.00
C10    C     0.00003   0.05153   0.02906   0.00000  Uiso   1.00
C11    C     0.00014   0.03448   0.03877   0.00000  Uiso   1.00
C12    C     0.00014   0.97480   0.03877   0.00000  Uiso   1.00
N4     N    -0.00002   0.08784   0.00895   0.00000  Uiso   1.00
C13    C    -0.00001   0.12478   0.01680   0.00000  Uiso   1.00
N5     N     0.00004   0.10779   0.02622   0.00000  Uiso   1.00
C14    C     0.00001   0.18279   0.01395   0.00000  Uiso   1.00
C15    C     0.00001   0.18278   0.00396   0.00000  Uiso   1.00
C16    C    -0.00001   0.12477   0.00110   0.00000  Uiso   1.00
C17    C     0.00033   0.94217   0.04744   0.00000  Uiso   1.00
C18    C     0.00056   0.97315   0.05643   0.00000  Uiso   1.00
C19    C     0.00056   0.03616   0.05643   0.00000  Uiso   1.00
C20    C     0.00034   0.06712   0.04744   0.00000  Uiso   1.00
C21    C     0.00004   0.23460   0.99850   0.00000  Uiso   1.00
C22    C     0.00007   0.28828   0.00368   0.00000  Uiso   1.00
C23    C     0.00007   0.28829   0.01422   0.00000  Uiso   1.00
C24    C     0.00004   0.23463   0.01941   0.00000  Uiso   1.00
N6     N    -0.00002   0.00459   0.99502   0.00000  Uiso   1.00
C25    C     0.00003   0.05149   0.98884   0.00000  Uiso   1.00
N7     N     0.00004   0.10775   0.99169   0.00000  Uiso   1.00
C26    C     0.00015   0.03442   0.97913   0.00000  Uiso   1.00
C27    C     0.00015   0.97474   0.97913   0.00000  Uiso   1.00
C28    C     0.00003   0.95768   0.98884   0.00000  Uiso   1.00
C29    C     0.00036   0.94210   0.97046   0.00000  Uiso   1.00
C30    C     0.00060   0.97306   0.96147   0.00000  Uiso   1.00
C31    C     0.00060   0.03607   0.96148   0.00000  Uiso   1.00
C32    C     0.00036   0.06705   0.97046   0.00000  Uiso   1.00
N8     N     0.00004   0.90143   0.99168   0.00000  Uiso   1.00
H1     H     0.00004   0.77586   0.99053   0.00000  Uiso   1.00
H2     H     0.00004   0.77591   0.02737   0.00000  Uiso   1.00
H3     H     0.00036   0.89460   0.04723   0.00000  Uiso   1.00
H4     H     0.00036   0.11469   0.04723   0.00000  Uiso   1.00
H5     H     0.00004   0.23330   0.99053   0.00000  Uiso   1.00
H6     H     0.00004   0.23336   0.02737   0.00000  Uiso   1.00
H7     H     0.00039   0.89452   0.97067   0.00000  Uiso   1.00
H8     H     0.00038   0.11462   0.97067   0.00000  Uiso   1.00
C33    C     0.00091   0.94267   0.95249   0.00000  Uiso   1.00
C34    C     0.00123   0.97437   0.94370   0.00000  Uiso   1.00
C35    C     0.00122   0.03473   0.94370   0.00000  Uiso   1.00
C36    C     0.00090   0.06645   0.95249   0.00000  Uiso   1.00
C37    C     0.00009   0.66721   0.99859   0.00000  Uiso   1.00
C38    C     0.00010   0.61471   0.00390   0.00000  Uiso   1.00
C39    C     0.00010   0.61473   0.01400   0.00000  Uiso   1.00
C40    C     0.00009   0.66724   0.01931   0.00000  Uiso   1.00
C41    C     0.00084   0.94277   0.06541   0.00000  Uiso   1.00
C42    C     0.00112   0.97449   0.07420   0.00000  Uiso   1.00
C43    C     0.00112   0.03486   0.07420   0.00000  Uiso   1.00
C44    C     0.00084   0.06656   0.06542   0.00000  Uiso   1.00
C45    C     0.00009   0.34198   0.99859   0.00000  Uiso   1.00
C46    C     0.00010   0.39449   0.00390   0.00000  Uiso   1.00
C47    C     0.00010   0.39450   0.01400   0.00000  Uiso   1.00
C48    C     0.00009   0.34201   0.01931   0.00000  Uiso   1.00
H9     H     0.00093   0.89509   0.95229   0.00000  Uiso   1.00
O1     O     0.00159   0.94765   0.93458   0.00000  Uiso   1.00
O2     O     0.00159   0.06144   0.93459   0.00000  Uiso   1.00
H10    H     0.00092   0.11402   0.95229   0.00000  Uiso   1.00
H11    H     0.00009   0.66602   0.99063   0.00000  Uiso   1.00
O3     O     0.00011   0.56024   0.99943   0.00000  Uiso   1.00
O4     O     0.00012   0.56027   0.01847   0.00000  Uiso   1.00
H12    H     0.00009   0.66608   0.02727   0.00000  Uiso   1.00
H13    H     0.00085   0.89520   0.06561   0.00000  Uiso   1.00
O5     O     0.00145   0.94779   0.08332   0.00000  Uiso   1.00
O6     O     0.00145   0.06158   0.08332   0.00000  Uiso   1.00
H14    H     0.00086   0.11413   0.06561   0.00000  Uiso   1.00
H15    H     0.00009   0.34314   0.99063   0.00000  Uiso   1.00
O7     O     0.00011   0.44895   0.99943   0.00000  Uiso   1.00
O8     O     0.00012   0.44898   0.01847   0.00000  Uiso   1.00
H16    H     0.00009   0.34320   0.02727   0.00000  Uiso   1.00
Ni1    Ni   -0.00004   0.00461   0.00895   0.00000  Uiso   1.00
C49    C     0.94216   0.00036   0.47046   0.00000  Uiso   1.00
C50    C     0.97312   0.00060   0.46148   0.00000  Uiso   1.00
C51    C     0.03613   0.00060   0.46148   0.00000  Uiso   1.00
C52    C     0.06711   0.00036   0.47046   0.00000  Uiso   1.00
C53    C     0.03449   0.00015   0.47914   0.00000  Uiso   1.00
C54    C     0.97480   0.00016   0.47913   0.00000  Uiso   1.00
C55    C     0.95775   0.00004   0.48884   0.00000  Uiso   1.00
N9     N     0.00466  -0.00002   0.49503   0.00000  Uiso   1.00
C56    C     0.05156   0.00004   0.48884   0.00000  Uiso   1.00
N10    N     0.10782   0.00004   0.49169   0.00000  Uiso   1.00
C57    C     0.12484  -0.00001   0.50111   0.00000  Uiso   1.00
N11    N     0.08791  -0.00002   0.50896   0.00000  Uiso   1.00
C58    C     0.12486  -0.00001   0.51681   0.00000  Uiso   1.00
C59    C     0.18286   0.00000   0.51395   0.00000  Uiso   1.00
C60    C     0.18285   0.00000   0.50396   0.00000  Uiso   1.00
N12    N     0.00470  -0.00002   0.52288   0.00000  Uiso   1.00
C61    C     0.05161   0.00004   0.52907   0.00000  Uiso   1.00
N13    N     0.10786   0.00004   0.52622   0.00000  Uiso   1.00
C62    C     0.03455   0.00015   0.53877   0.00000  Uiso   1.00
C63    C     0.97487   0.00015   0.53877   0.00000  Uiso   1.00
C64    C     0.95780   0.00004   0.52906   0.00000  Uiso   1.00
C65    C     0.23467   0.00003   0.49850   0.00000  Uiso   1.00
C66    C     0.28835   0.00006   0.50368   0.00000  Uiso   1.00
C67    C     0.28837   0.00006   0.51423   0.00000  Uiso   1.00
C68    C     0.23470   0.00004   0.51941   0.00000  Uiso   1.00
C69    C     0.94224   0.00034   0.54745   0.00000  Uiso   1.00
C70    C     0.97322   0.00057   0.55643   0.00000  Uiso   1.00
C71    C     0.03623   0.00057   0.55643   0.00000  Uiso   1.00
C72    C     0.06719   0.00034   0.54745   0.00000  Uiso   1.00
N14    N     0.92145  -0.00002   0.50895   0.00000  Uiso   1.00
C73    C     0.88452  -0.00001   0.51680   0.00000  Uiso   1.00
N15    N     0.90154   0.00004   0.52622   0.00000  Uiso   1.00
C74    C     0.82651   0.00000   0.51395   0.00000  Uiso   1.00
C75    C     0.82650   0.00000   0.50396   0.00000  Uiso   1.00
C76    C     0.88450  -0.00001   0.50110   0.00000  Uiso   1.00
C77    C     0.77466   0.00003   0.49850   0.00000  Uiso   1.00
C78    C     0.72100   0.00006   0.50368   0.00000  Uiso   1.00
C79    C     0.72101   0.00006   0.51423   0.00000  Uiso   1.00
C80    C     0.77469   0.00004   0.51941   0.00000  Uiso   1.00
N16    N     0.90150   0.00004   0.49169   0.00000  Uiso   1.00
H17    H     0.89459   0.00038   0.47068   0.00000  Uiso   1.00
H18    H     0.11468   0.00038   0.47068   0.00000  Uiso   1.00
H19    H     0.23338   0.00004   0.49054   0.00000  Uiso   1.00
H20    H     0.23343   0.00004   0.52737   0.00000  Uiso   1.00
H21    H     0.89467   0.00036   0.54723   0.00000  Uiso   1.00
H22    H     0.11477   0.00037   0.54723   0.00000  Uiso   1.00
H23    H     0.77593   0.00004   0.49054   0.00000  Uiso   1.00
H24    H     0.77599   0.00004   0.52737   0.00000  Uiso   1.00
C81    C     0.66728   0.00009   0.49860   0.00000  Uiso   1.00
C82    C     0.61479   0.00010   0.50390   0.00000  Uiso   1.00
C83    C     0.61480   0.00011   0.51401   0.00000  Uiso   1.00
C84    C     0.66731   0.00009   0.51931   0.00000  Uiso   1.00
C85    C     0.94272   0.00090   0.45249   0.00000  Uiso   1.00
C86    C     0.97442   0.00121   0.44370   0.00000  Uiso   1.00
C87    C     0.03478   0.00121   0.44370   0.00000  Uiso   1.00
C88    C     0.06651   0.00090   0.45249   0.00000  Uiso   1.00
C89    C     0.34205   0.00009   0.49860   0.00000  Uiso   1.00
C90    C     0.39456   0.00010   0.50390   0.00000  Uiso   1.00
C91    C     0.39457   0.00011   0.51401   0.00000  Uiso   1.00
C92    C     0.34208   0.00009   0.51931   0.00000  Uiso   1.00
C93    C     0.94284   0.00084   0.56542   0.00000  Uiso   1.00
C94    C     0.97456   0.00113   0.57420   0.00000  Uiso   1.00
C95    C     0.03492   0.00113   0.57421   0.00000  Uiso   1.00
C96    C     0.06662   0.00084   0.56542   0.00000  Uiso   1.00
H25    H     0.66609   0.00009   0.49063   0.00000  Uiso   1.00
O9     O     0.56031   0.00012   0.49943   0.00000  Uiso   1.00
O10    O     0.56034   0.00012   0.51848   0.00000  Uiso   1.00
H26    H     0.66615   0.00009   0.52727   0.00000  Uiso   1.00
H27    H     0.89515   0.00092   0.45229   0.00000  Uiso   1.00
O11    O     0.94770   0.00157   0.43459   0.00000  Uiso   1.00
O12    O     0.06148   0.00157   0.43459   0.00000  Uiso   1.00
H28    H     0.11408   0.00091   0.45229   0.00000  Uiso   1.00
H29    H     0.34321   0.00009   0.49064   0.00000  Uiso   1.00
O13    O     0.44902   0.00012   0.49943   0.00000  Uiso   1.00
O14    O     0.44905   0.00012   0.51848   0.00000  Uiso   1.00
H30    H     0.34327   0.00009   0.52728   0.00000  Uiso   1.00
H31    H     0.89527   0.00086   0.56561   0.00000  Uiso   1.00
O15    O     0.94785   0.00146   0.58332   0.00000  Uiso   1.00
O16    O     0.06164   0.00146   0.58332   0.00000  Uiso   1.00
H32    H     0.11420   0.00086   0.56562   0.00000  Uiso   1.00
Ni2    Ni    0.00468  -0.00003   0.50895   0.00000  Uiso   1.00
C97    C     0.00367   0.94230   0.13782   0.00000  Uiso   1.00
C98    C     0.00337   0.97326   0.12883   0.00000  Uiso   1.00
C99    C     0.00337   0.03626   0.12883   0.00000  Uiso   1.00
C100   C     0.00367   0.06725   0.13781   0.00000  Uiso   1.00
C101   C     0.00394   0.03463   0.14649   0.00000  Uiso   1.00
C102   C     0.00394   0.97495   0.14649   0.00000  Uiso   1.00
C103   C     0.00416   0.95791   0.15620   0.00000  Uiso   1.00
N17    N     0.00430   0.00482   0.16238   0.00000  Uiso   1.00
C104   C     0.00416   0.05171   0.15620   0.00000  Uiso   1.00
N18    N     0.00422   0.10798   0.15904   0.00000  Uiso   1.00
C105   C     0.00440   0.12501   0.16846   0.00000  Uiso   1.00
N19    N     0.00450   0.08808   0.17631   0.00000  Uiso   1.00
C106   C     0.00461   0.12503   0.18416   0.00000  Uiso   1.00
C107   C     0.00458   0.18304   0.18130   0.00000  Uiso   1.00
C108   C     0.00445   0.18302   0.17131   0.00000  Uiso   1.00
N20    N     0.00467   0.00488   0.19024   0.00000  Uiso   1.00
C109   C     0.00470   0.05179   0.19642   0.00000  Uiso   1.00
N21    N     0.00468   0.10805   0.19357   0.00000  Uiso   1.00
C110   C     0.00474   0.03475   0.20613   0.00000  Uiso   1.00
C111   C     0.00474   0.97509   0.20613   0.00000  Uiso   1.00
C112   C     0.00470   0.95799   0.19642   0.00000  Uiso   1.00
C113   C     0.00436   0.23484   0.16585   0.00000  Uiso   1.00
C114   C     0.00441   0.28852   0.17104   0.00000  Uiso   1.00
C115   C     0.00455   0.28853   0.18158   0.00000  Uiso   1.00
C116   C     0.00464   0.23487   0.18676   0.00000  Uiso   1.00
C117   C     0.00474   0.94253   0.21481   0.00000  Uiso   1.00
C118   C     0.00472   0.97355   0.22379   0.00000  Uiso   1.00
C119   C     0.00471   0.03643   0.22379   0.00000  Uiso   1.00
C120   C     0.00473   0.06738   0.21480   0.00000  Uiso   1.00
N22    N     0.00451   0.92162   0.17631   0.00000  Uiso   1.00
C121   C     0.00461   0.88470   0.18416   0.00000  Uiso   1.00
N23    N     0.00469   0.90173   0.19358   0.00000  Uiso   1.00
C122   C     0.00458   0.82668   0.18131   0.00000  Uiso   1.00
C123   C     0.00445   0.82667   0.17132   0.00000  Uiso   1.00
C124   C     0.00440   0.88467   0.16846   0.00000  Uiso   1.00
C125   C     0.00436   0.77483   0.16586   0.00000  Uiso   1.00
C126   C     0.00441   0.72117   0.17104   0.00000  Uiso   1.00
C127   C     0.00455   0.72118   0.18159   0.00000  Uiso   1.00
C128   C     0.00464   0.77487   0.18677   0.00000  Uiso   1.00
N24    N     0.00422   0.90166   0.15905   0.00000  Uiso   1.00
H33    H     0.00366   0.89473   0.13803   0.00000  Uiso   1.00
H34    H     0.00366   0.11482   0.13803   0.00000  Uiso   1.00
H35    H     0.00424   0.23355   0.15789   0.00000  Uiso   1.00
H36    H     0.00474   0.23359   0.19472   0.00000  Uiso   1.00
H37    H     0.00473   0.89496   0.21460   0.00000  Uiso   1.00
H38    H     0.00472   0.11495   0.21458   0.00000  Uiso   1.00
H39    H     0.00424   0.77610   0.15790   0.00000  Uiso   1.00
H40    H     0.00474   0.77616   0.19473   0.00000  Uiso   1.00
C129   C     0.00432   0.66745   0.16595   0.00000  Uiso   1.00
C130   C     0.00437   0.61496   0.17126   0.00000  Uiso   1.00
C131   C     0.00450   0.61497   0.18136   0.00000  Uiso   1.00
C132   C     0.00460   0.66748   0.18667   0.00000  Uiso   1.00
C133   C     0.00302   0.94285   0.11984   0.00000  Uiso   1.00
C134   C     0.00267   0.97455   0.11106   0.00000  Uiso   1.00
C135   C     0.00267   0.03491   0.11106   0.00000  Uiso   1.00
C136   C     0.00302   0.06663   0.11984   0.00000  Uiso   1.00
C137   C     0.00432   0.34223   0.16595   0.00000  Uiso   1.00
C138   C     0.00436   0.39473   0.17126   0.00000  Uiso   1.00
C139   C     0.00450   0.39474   0.18136   0.00000  Uiso   1.00
C140   C     0.00460   0.34225   0.18667   0.00000  Uiso   1.00
C141   C     0.00468   0.94311   0.23276   0.00000  Uiso   1.00
C142   C     0.00463   0.97406   0.24163   0.00000  Uiso   1.00
C143   C     0.00463   0.03608   0.24162   0.00000  Uiso   1.00
C144   C     0.00467   0.06695   0.23275   0.00000  Uiso   1.00
H41    H     0.00421   0.66627   0.15799   0.00000  Uiso   1.00
O17    O     0.00428   0.56049   0.16679   0.00000  Uiso   1.00
O18    O     0.00454   0.56051   0.18583   0.00000  Uiso   1.00
H42    H     0.00470   0.66632   0.19463   0.00000  Uiso   1.00
H43    H     0.00301   0.89528   0.11965   0.00000  Uiso   1.00
O19    O     0.00228   0.94782   0.10194   0.00000  Uiso   1.00
O20    O     0.00228   0.06160   0.10194   0.00000  Uiso   1.00
H44    H     0.00301   0.11420   0.11965   0.00000  Uiso   1.00
H45    H     0.00421   0.34340   0.15799   0.00000  Uiso   1.00
O21    O     0.00428   0.44920   0.16679   0.00000  Uiso   1.00
O22    O     0.00454   0.44921   0.18583   0.00000  Uiso   1.00
H46    H     0.00470   0.34343   0.19463   0.00000  Uiso   1.00
H47    H     0.00468   0.89552   0.23288   0.00000  Uiso   1.00
O23    O     0.00458   0.94399   0.25056   0.00000  Uiso   1.00
O24    O     0.00457   0.06624   0.25055   0.00000  Uiso   1.00
H48    H     0.00467   0.11454   0.23287   0.00000  Uiso   1.00
Ni3    Ni    0.00449   0.00485   0.17631   0.00000  Uiso   1.00
C145   C     0.94234   0.00369   0.63782   0.00000  Uiso   1.00
C146   C     0.97330   0.00339   0.62884   0.00000  Uiso   1.00
C147   C     0.03630   0.00339   0.62884   0.00000  Uiso   1.00
C148   C     0.06729   0.00369   0.63782   0.00000  Uiso   1.00
C149   C     0.03467   0.00396   0.64649   0.00000  Uiso   1.00
C150   C     0.97499   0.00396   0.64649   0.00000  Uiso   1.00
C151   C     0.95794   0.00419   0.65620   0.00000  Uiso   1.00
N25    N     0.00486   0.00432   0.66238   0.00000  Uiso   1.00
C152   C     0.05175   0.00419   0.65620   0.00000  Uiso   1.00
N26    N     0.10801   0.00424   0.65904   0.00000  Uiso   1.00
C153   C     0.12504   0.00442   0.66846   0.00000  Uiso   1.00
N27    N     0.08811   0.00453   0.67631   0.00000  Uiso   1.00
C154   C     0.12507   0.00463   0.68416   0.00000  Uiso   1.00
C155   C     0.18307   0.00460   0.68130   0.00000  Uiso   1.00
C156   C     0.18306   0.00447   0.67132   0.00000  Uiso   1.00
N28    N     0.00491   0.00469   0.69024   0.00000  Uiso   1.00
C157   C     0.05183   0.00472   0.69642   0.00000  Uiso   1.00
N29    N     0.10808   0.00471   0.69357   0.00000  Uiso   1.00
C158   C     0.03479   0.00477   0.70613   0.00000  Uiso   1.00
C159   C     0.97512   0.00477   0.70613   0.00000  Uiso   1.00
C160   C     0.95803   0.00473   0.69642   0.00000  Uiso   1.00
C161   C     0.23488   0.00438   0.66585   0.00000  Uiso   1.00
C162   C     0.28856   0.00443   0.67104   0.00000  Uiso   1.00
C163   C     0.28857   0.00457   0.68158   0.00000  Uiso   1.00
C164   C     0.23490   0.00466   0.68677   0.00000  Uiso   1.00
C165   C     0.94256   0.00476   0.71481   0.00000  Uiso   1.00
C166   C     0.97358   0.00474   0.72380   0.00000  Uiso   1.00
C167   C     0.03646   0.00474   0.72379   0.00000  Uiso   1.00
C168   C     0.06741   0.00476   0.71480   0.00000  Uiso   1.00
N30    N     0.92166   0.00453   0.67631   0.00000  Uiso   1.00
C169   C     0.88473   0.00463   0.68416   0.00000  Uiso   1.00
N31    N     0.90176   0.00471   0.69358   0.00000  Uiso   1.00
C170   C     0.82672   0.00461   0.68131   0.00000  Uiso   1.00
C171   C     0.82670   0.00447   0.67132   0.00000  Uiso   1.00
C172   C     0.88470   0.00442   0.66846   0.00000  Uiso   1.00
C173   C     0.77486   0.00438   0.66586   0.00000  Uiso   1.00
C174   C     0.72120   0.00443   0.67104   0.00000  Uiso   1.00
C175   C     0.72122   0.00457   0.68159   0.00000  Uiso   1.00
C176   C     0.77490   0.00466   0.68677   0.00000  Uiso   1.00
N32    N     0.90169   0.00424   0.65905   0.00000  Uiso   1.00
H49    H     0.89477   0.00368   0.63803   0.00000  Uiso   1.00
H50    H     0.11486   0.00368   0.63803   0.00000  Uiso   1.00
H51    H     0.23359   0.00427   0.65789   0.00000  Uiso   1.00
H52    H     0.23362   0.00476   0.69473   0.00000  Uiso   1.00
H53    H     0.89499   0.00475   0.71460   0.00000  Uiso   1.00
H54    H     0.11498   0.00474   0.71458   0.00000  Uiso   1.00
H55    H     0.77613   0.00426   0.65790   0.00000  Uiso   1.00
H56    H     0.77620   0.00477   0.69473   0.00000  Uiso   1.00
C177   C     0.66748   0.00434   0.66596   0.00000  Uiso   1.00
C178   C     0.61499   0.00439   0.67127   0.00000  Uiso   1.00
C179   C     0.61501   0.00452   0.68137   0.00000  Uiso   1.00
C180   C     0.66751   0.00462   0.68667   0.00000  Uiso   1.00
C181   C     0.94289   0.00304   0.61985   0.00000  Uiso   1.00
C182   C     0.97459   0.00269   0.61106   0.00000  Uiso   1.00
C183   C     0.03495   0.00269   0.61106   0.00000  Uiso   1.00
C184   C     0.06668   0.00304   0.61985   0.00000  Uiso   1.00
C185   C     0.34226   0.00434   0.66595   0.00000  Uiso   1.00
C186   C     0.39476   0.00439   0.67126   0.00000  Uiso   1.00
C187   C     0.39477   0.00452   0.68136   0.00000  Uiso   1.00
C188   C     0.34228   0.00462   0.68667   0.00000  Uiso   1.00
C189   C     0.94315   0.00470   0.73276   0.00000  Uiso   1.00
C190   C     0.97409   0.00465   0.74163   0.00000  Uiso   1.00
C191   C     0.03612   0.00465   0.74162   0.00000  Uiso   1.00
C192   C     0.06698   0.00469   0.73275   0.00000  Uiso   1.00
H57    H     0.66630   0.00423   0.65800   0.00000  Uiso   1.00
O25    O     0.56052   0.00430   0.66679   0.00000  Uiso   1.00
O26    O     0.56054   0.00456   0.68584   0.00000  Uiso   1.00
H58    H     0.66635   0.00473   0.69464   0.00000  Uiso   1.00
H59    H     0.89532   0.00302   0.61965   0.00000  Uiso   1.00
O27    O     0.94787   0.00229   0.60194   0.00000  Uiso   1.00
O28    O     0.06166   0.00230   0.60195   0.00000  Uiso   1.00
H60    H     0.11425   0.00303   0.61965   0.00000  Uiso   1.00
H61    H     0.34343   0.00423   0.65799   0.00000  Uiso   1.00
O29    O     0.44923   0.00430   0.66679   0.00000  Uiso   1.00
O30    O     0.44925   0.00456   0.68584   0.00000  Uiso   1.00
H62    H     0.34346   0.00472   0.69463   0.00000  Uiso   1.00
H63    H     0.89556   0.00470   0.73289   0.00000  Uiso   1.00
O31    O     0.94402   0.00460   0.75056   0.00000  Uiso   1.00
O32    O     0.06627   0.00460   0.75055   0.00000  Uiso   1.00
H64    H     0.11457   0.00469   0.73287   0.00000  Uiso   1.00
Ni4    Ni    0.00489   0.00452   0.67631   0.00000  Uiso   1.00
C193   C     0.00402   0.06699   0.88009   0.00000  Uiso   1.00
C194   C     0.00370   0.03602   0.88907   0.00000  Uiso   1.00
C195   C     0.00370   0.97302   0.88907   0.00000  Uiso   1.00
C196   C     0.00402   0.94204   0.88009   0.00000  Uiso   1.00
C197   C     0.00430   0.97467   0.87141   0.00000  Uiso   1.00
C198   C     0.00430   0.03435   0.87142   0.00000  Uiso   1.00
C199   C     0.00454   0.05140   0.86171   0.00000  Uiso   1.00
N33    N     0.00468   0.00450   0.85552   0.00000  Uiso   1.00
C200   C     0.00454   0.95760   0.86171   0.00000  Uiso   1.00
N34    N     0.00460   0.90134   0.85886   0.00000  Uiso   1.00
C201   C     0.00480   0.88432   0.84944   0.00000  Uiso   1.00
N35    N     0.00492   0.92125   0.84159   0.00000  Uiso   1.00
C202   C     0.00503   0.88431   0.83374   0.00000  Uiso   1.00
C203   C     0.00499   0.82630   0.83660   0.00000  Uiso   1.00
C204   C     0.00484   0.82631   0.84659   0.00000  Uiso   1.00
N36    N     0.00511   0.00447   0.82767   0.00000  Uiso   1.00
C205   C     0.00517   0.95757   0.82148   0.00000  Uiso   1.00
N37    N     0.00514   0.90131   0.82433   0.00000  Uiso   1.00
C206   C     0.00525   0.97464   0.81177   0.00000  Uiso   1.00
C207   C     0.00525   0.03430   0.81178   0.00000  Uiso   1.00
C208   C     0.00517   0.05137   0.82149   0.00000  Uiso   1.00
C209   C     0.00474   0.77449   0.85205   0.00000  Uiso   1.00
C210   C     0.00480   0.72081   0.84686   0.00000  Uiso   1.00
C211   C     0.00495   0.72080   0.83632   0.00000  Uiso   1.00
C212   C     0.00505   0.77447   0.83114   0.00000  Uiso   1.00
C213   C     0.00528   0.06690   0.80310   0.00000  Uiso   1.00
C214   C     0.00530   0.03593   0.79412   0.00000  Uiso   1.00
C215   C     0.00530   0.97305   0.79411   0.00000  Uiso   1.00
C216   C     0.00529   0.94206   0.80310   0.00000  Uiso   1.00
N38    N     0.00492   0.08771   0.84160   0.00000  Uiso   1.00
C217   C     0.00503   0.12464   0.83375   0.00000  Uiso   1.00
N39    N     0.00514   0.10763   0.82433   0.00000  Uiso   1.00
C218   C     0.00499   0.18265   0.83660   0.00000  Uiso   1.00
C219   C     0.00484   0.18267   0.84659   0.00000  Uiso   1.00
C220   C     0.00479   0.12466   0.84945   0.00000  Uiso   1.00
C221   C     0.00474   0.23450   0.85205   0.00000  Uiso   1.00
C222   C     0.00480   0.28817   0.84687   0.00000  Uiso   1.00
C223   C     0.00495   0.28815   0.83632   0.00000  Uiso   1.00
C224   C     0.00504   0.23447   0.83114   0.00000  Uiso   1.00
N40    N     0.00460   0.10766   0.85886   0.00000  Uiso   1.00
H65    H     0.00401   0.11456   0.87988   0.00000  Uiso   1.00
H66    H     0.00401   0.89447   0.87987   0.00000  Uiso   1.00
H67    H     0.00462   0.77578   0.86001   0.00000  Uiso   1.00
H68    H     0.00516   0.77574   0.82317   0.00000  Uiso   1.00
H69    H     0.00527   0.11448   0.80332   0.00000  Uiso   1.00
H70    H     0.00528   0.89448   0.80331   0.00000  Uiso   1.00
H71    H     0.00462   0.23324   0.86002   0.00000  Uiso   1.00
H72    H     0.00515   0.23317   0.82318   0.00000  Uiso   1.00
C225   C     0.00470   0.34189   0.85195   0.00000  Uiso   1.00
C226   C     0.00476   0.39438   0.84665   0.00000  Uiso   1.00
C227   C     0.00490   0.39436   0.83654   0.00000  Uiso   1.00
C228   C     0.00500   0.34185   0.83124   0.00000  Uiso   1.00
C229   C     0.00333   0.06642   0.89806   0.00000  Uiso   1.00
C230   C     0.00295   0.03471   0.90685   0.00000  Uiso   1.00
C231   C     0.00295   0.97435   0.90684   0.00000  Uiso   1.00
C232   C     0.00333   0.94263   0.89806   0.00000  Uiso   1.00
C233   C     0.00470   0.66711   0.85195   0.00000  Uiso   1.00
C234   C     0.00476   0.61461   0.84664   0.00000  Uiso   1.00
C235   C     0.00490   0.61459   0.83654   0.00000  Uiso   1.00
C236   C     0.00500   0.66708   0.83123   0.00000  Uiso   1.00
C237   C     0.00529   0.06642   0.78516   0.00000  Uiso   1.00
C238   C     0.00527   0.03554   0.77628   0.00000  Uiso   1.00
C239   C     0.00527   0.97351   0.77628   0.00000  Uiso   1.00
C240   C     0.00530   0.94259   0.78515   0.00000  Uiso   1.00
H73    H     0.00459   0.34308   0.85992   0.00000  Uiso   1.00
O33    O     0.00467   0.44885   0.85112   0.00000  Uiso   1.00
O34    O     0.00494   0.44882   0.83207   0.00000  Uiso   1.00
H74    H     0.00511   0.34301   0.82328   0.00000  Uiso   1.00
H75    H     0.00331   0.11399   0.89826   0.00000  Uiso   1.00
O35    O     0.00252   0.06143   0.91596   0.00000  Uiso   1.00
O36    O     0.00252   0.94764   0.91596   0.00000  Uiso   1.00
H76    H     0.00331   0.89506   0.89825   0.00000  Uiso   1.00
H77    H     0.00459   0.66595   0.85991   0.00000  Uiso   1.00
O37    O     0.00467   0.56015   0.85111   0.00000  Uiso   1.00
O38    O     0.00494   0.56011   0.83207   0.00000  Uiso   1.00
H78    H     0.00511   0.66590   0.82327   0.00000  Uiso   1.00
H79    H     0.00529   0.11402   0.78504   0.00000  Uiso   1.00
O39    O     0.00523   0.06567   0.76735   0.00000  Uiso   1.00
O40    O     0.00524   0.94342   0.76734   0.00000  Uiso   1.00
H80    H     0.00529   0.89500   0.78502   0.00000  Uiso   1.00
Ni5    Ni    0.00491   0.00448   0.84160   0.00000  Uiso   1.00
C241   C     0.06700   0.00398   0.38009   0.00000  Uiso   1.00
C242   C     0.03604   0.00366   0.38907   0.00000  Uiso   1.00
C243   C     0.97303   0.00366   0.38907   0.00000  Uiso   1.00
C244   C     0.94205   0.00398   0.38009   0.00000  Uiso   1.00
C245   C     0.97467   0.00426   0.37142   0.00000  Uiso   1.00
C246   C     0.03436   0.00426   0.37142   0.00000  Uiso   1.00
C247   C     0.05141   0.00450   0.36171   0.00000  Uiso   1.00
N41    N     0.00450   0.00464   0.35553   0.00000  Uiso   1.00
C248   C     0.95760   0.00450   0.36171   0.00000  Uiso   1.00
N42    N     0.90134   0.00456   0.35886   0.00000  Uiso   1.00
C249   C     0.88433   0.00475   0.34944   0.00000  Uiso   1.00
N43    N     0.92126   0.00487   0.34159   0.00000  Uiso   1.00
C250   C     0.88431   0.00499   0.33374   0.00000  Uiso   1.00
C251   C     0.82630   0.00495   0.33660   0.00000  Uiso   1.00
C252   C     0.82631   0.00480   0.34659   0.00000  Uiso   1.00
N44    N     0.00447   0.00506   0.32767   0.00000  Uiso   1.00
C253   C     0.95757   0.00512   0.32148   0.00000  Uiso   1.00
N45    N     0.90131   0.00510   0.32433   0.00000  Uiso   1.00
C254   C     0.97463   0.00521   0.31178   0.00000  Uiso   1.00
C255   C     0.03429   0.00521   0.31178   0.00000  Uiso   1.00
C256   C     0.05137   0.00512   0.32149   0.00000  Uiso   1.00
C257   C     0.77449   0.00470   0.35205   0.00000  Uiso   1.00
C258   C     0.72081   0.00476   0.34686   0.00000  Uiso   1.00
C259   C     0.72080   0.00491   0.33632   0.00000  Uiso   1.00
C260   C     0.77447   0.00501   0.33114   0.00000  Uiso   1.00
C261   C     0.06690   0.00524   0.30310   0.00000  Uiso   1.00
C262   C     0.03592   0.00526   0.29412   0.00000  Uiso   1.00
C263   C     0.97304   0.00526   0.29411   0.00000  Uiso   1.00
C264   C     0.94205   0.00524   0.30310   0.00000  Uiso   1.00
N46    N     0.08771   0.00487   0.34160   0.00000  Uiso   1.00
C265   C     0.12464   0.00499   0.33375   0.00000  Uiso   1.00
N47    N     0.10763   0.00509   0.32433   0.00000  Uiso   1.00
C266   C     0.18265   0.00495   0.33660   0.00000  Uiso   1.00
C267   C     0.18267   0.00480   0.34659   0.00000  Uiso   1.00
C268   C     0.12466   0.00475   0.34945   0.00000  Uiso   1.00
C269   C     0.23451   0.00470   0.35205   0.00000  Uiso   1.00
C270   C     0.28817   0.00476   0.34687   0.00000  Uiso   1.00
C271   C     0.28815   0.00491   0.33632   0.00000  Uiso   1.00
C272   C     0.23447   0.00501   0.33114   0.00000  Uiso   1.00
N48    N     0.10766   0.00456   0.35886   0.00000  Uiso   1.00
H81    H     0.11457   0.00397   0.37988   0.00000  Uiso   1.00
H82    H     0.89448   0.00397   0.37987   0.00000  Uiso   1.00
H83    H     0.77579   0.00458   0.36001   0.00000  Uiso   1.00
H84    H     0.77574   0.00512   0.32317   0.00000  Uiso   1.00
H85    H     0.11447   0.00523   0.30332   0.00000  Uiso   1.00
H86    H     0.89447   0.00523   0.30331   0.00000  Uiso   1.00
H87    H     0.23324   0.00458   0.36002   0.00000  Uiso   1.00
H88    H     0.23317   0.00511   0.32318   0.00000  Uiso   1.00
C273   C     0.34189   0.00466   0.35195   0.00000  Uiso   1.00
C274   C     0.39438   0.00472   0.34665   0.00000  Uiso   1.00
C275   C     0.39436   0.00486   0.33654   0.00000  Uiso   1.00
C276   C     0.34185   0.00496   0.33124   0.00000  Uiso   1.00
C277   C     0.06644   0.00330   0.39806   0.00000  Uiso   1.00
C278   C     0.03474   0.00292   0.40685   0.00000  Uiso   1.00
C279   C     0.97438   0.00292   0.40685   0.00000  Uiso   1.00
C280   C     0.94265   0.00330   0.39806   0.00000  Uiso   1.00
C281   C     0.66711   0.00466   0.35195   0.00000  Uiso   1.00
C282   C     0.61461   0.00472   0.34664   0.00000  Uiso   1.00
C283   C     0.61459   0.00486   0.33654   0.00000  Uiso   1.00
C284   C     0.66708   0.00496   0.33123   0.00000  Uiso   1.00
C285   C     0.06641   0.00526   0.28516   0.00000  Uiso   1.00
C286   C     0.03552   0.00524   0.27628   0.00000  Uiso   1.00
C287   C     0.97350   0.00524   0.27628   0.00000  Uiso   1.00
C288   C     0.94258   0.00526   0.28515   0.00000  Uiso   1.00
H89    H     0.34308   0.00455   0.35992   0.00000  Uiso   1.00
O41    O     0.44885   0.00463   0.35112   0.00000  Uiso   1.00
O42    O     0.44882   0.00490   0.33207   0.00000  Uiso   1.00
H90    H     0.34301   0.00507   0.32328   0.00000  Uiso   1.00
H91    H     0.11401   0.00328   0.39826   0.00000  Uiso   1.00
O43    O     0.06146   0.00249   0.41596   0.00000  Uiso   1.00
O44    O     0.94768   0.00249   0.41596   0.00000  Uiso   1.00
H92    H     0.89508   0.00328   0.39826   0.00000  Uiso   1.00
H93    H     0.66595   0.00455   0.35991   0.00000  Uiso   1.00
O45    O     0.56015   0.00463   0.35111   0.00000  Uiso   1.00
O46    O     0.56011   0.00490   0.33207   0.00000  Uiso   1.00
H94    H     0.66590   0.00507   0.32327   0.00000  Uiso   1.00
H95    H     0.11400   0.00525   0.28504   0.00000  Uiso   1.00
O47    O     0.06565   0.00520   0.26735   0.00000  Uiso   1.00
O48    O     0.94340   0.00520   0.26734   0.00000  Uiso   1.00
H96    H     0.89499   0.00526   0.28502   0.00000  Uiso   1.00
Ni6    Ni    0.00448   0.00486   0.34160   0.00000  Uiso   1.00
Zn1    Zn    0.00455   0.00516   0.25895   0.00000  Uiso   1.00
Zn2    Zn    0.00519   0.00457   0.75895   0.00000  Uiso   1.00
Cu1    Cu    0.00440   0.50485   0.17631   0.00000  Uiso   1.00
Cu2    Cu    0.50488   0.00442   0.67632   0.00000  Uiso   1.00
Cu3    Cu    0.00480   0.50448   0.84159   0.00000  Uiso   1.00
Cu4    Cu    0.50448   0.00476   0.34159   0.00000  Uiso   1.00
Cu5    Cu    0.00185   0.00470   0.09263   0.00000  Uiso   1.00
Cu6    Cu    0.00475   0.00186   0.59263   0.00000  Uiso   1.00
Cu7    Cu    0.00204   0.00454   0.92527   0.00000  Uiso   1.00
Cu8    Cu    0.00458   0.00202   0.42528   0.00000  Uiso   1.00
Cu9    Cu    0.00010   0.50461   0.00895   0.00000  Uiso   1.00
Cu10   Cu    0.50468   0.00011   0.50896   0.00000  Uiso   1.00
loop_
_geom_bond_atom_site_label_1
_geom_bond_atom_site_label_2
_geom_bond_distance
_geom_bond_site_symmetry_2
_ccdc_geom_bond_type
C1     C2      1.411   1_556 A
C1     C6      1.394   1_556 A
C1     H1      1.084   .     S
C2     C1      1.411   1_554 A
C2     C3      1.435   .     A
C2     C37     1.405   1_554 A
C3     C4      1.411   .     A
C3     C40     1.405   .     A
C4     C5      1.394   .     A
C4     H2      1.084   .     S
C5     C6      1.359   .     A
C5     C8      1.377   .     A
C6     C1      1.394   1_554 A
C6     C7      1.377   .     A
C7     N1      1.359   .     A
C7     N8      1.338   1_554 A
N1     C8      1.359   .     A
N1     Ni1     1.895   1_565 S
C8     N2      1.338   .     A
N2     C9      1.338   .     A
C9     N3      1.359   1_565 A
C9     C12     1.377   .     A
N3     C9      1.359   1_545 A
N3     C10     1.359   .     A
N3     Ni1     1.895   .     S
C10    C11     1.377   .     A
C10    N5      1.338   .     A
C11    C12     1.359   1_545 A
C11    C20     1.394   .     A
C12    C11     1.359   1_565 A
C12    C17     1.394   .     A
N4     C13     1.359   .     A
N4     C16     1.359   .     A
N4     Ni1     1.895   .     S
C13    N5      1.338   .     A
C13    C14     1.377   .     A
C14    C15     1.359   .     A
C14    C24     1.394   .     A
C15    C16     1.377   .     A
C15    C21     1.394   1_554 A
C16    N7      1.338   1_554 A
C17    C18     1.411   .     A
C17    H3      1.084   .     S
C18    C19     1.435   1_565 A
C18    C41     1.405   .     A
C19    C18     1.435   1_545 A
C19    C20     1.411   .     A
C19    C44     1.405   .     A
C20    H4      1.084   .     S
C21    C15     1.394   1_556 A
C21    C22     1.411   1_556 A
C21    H5      1.084   .     S
C22    C21     1.411   1_554 A
C22    C23     1.435   .     A
C22    C45     1.405   1_554 A
C23    C24     1.411   .     A
C23    C48     1.405   .     A
C24    H6      1.084   .     S
N6     C25     1.359   .     A
N6     C28     1.359   1_545 A
N6     Ni1     1.895   1_556 S
C25    N7      1.338   .     A
C25    C26     1.377   .     A
N7     C16     1.338   1_556 A
C26    C27     1.359   1_545 A
C26    C32     1.394   .     A
C27    C26     1.359   1_565 A
C27    C28     1.377   .     A
C27    C29     1.394   .     A
C28    N6      1.359   1_565 A
C28    N8      1.338   .     A
C29    C30     1.411   .     A
C29    H7      1.084   .     S
C30    C31     1.435   1_565 A
C30    C33     1.405   .     A
C31    C30     1.435   1_545 A
C31    C32     1.411   .     A
C31    C36     1.405   .     A
C32    H8      1.084   .     S
N8     C7      1.338   1_556 A
C33    C34     1.396   .     A
C33    H9      1.083   .     S
C34    C35     1.374   1_565 A
C34    O1      1.381   .     S
C35    C34     1.374   1_545 A
C35    C36     1.396   .     A
C35    O2      1.381   .     S
C36    H10     1.083   .     S
C37    C2      1.405   1_556 A
C37    C38     1.396   1_556 A
C37    H11     1.083   .     S
C38    C37     1.396   1_554 A
C38    C39     1.374   .     A
C38    O3      1.381   1_554 S
C39    C40     1.396   .     A
C39    O4      1.381   .     S
C40    H12     1.083   .     S
C41    C42     1.396   .     A
C41    H13     1.083   .     S
C42    C43     1.374   1_565 A
C42    O5      1.381   .     S
C43    C42     1.374   1_545 A
C43    C44     1.396   .     A
C43    O6      1.381   .     S
C44    H14     1.083   .     S
C45    C22     1.405   1_556 A
C45    C46     1.396   1_556 A
C45    H15     1.083   .     S
C46    C45     1.396   1_554 A
C46    C47     1.374   .     A
C46    O7      1.381   1_554 S
C47    C48     1.396   .     A
C47    O8      1.381   .     S
C48    H16     1.083   .     S
O1     Cu7     1.812   1_565 S
O2     Cu7     1.812   .     S
O3     C38     1.381   1_556 S
O3     Cu9     1.812   1_556 S
O4     Cu9     1.812   .     S
O5     Cu5     1.812   1_565 S
O6     Cu5     1.812   .     S
O7     C46     1.381   1_556 S
O7     Cu9     1.812   1_556 S
O8     Cu9     1.812   .     S
Ni1    N1      1.895   1_545 S
Ni1    N6      1.895   1_554 S
C49    C50     1.411   .     A
C49    C54     1.394   .     A
C49    H17     1.084   .     S
C50    C51     1.435   1_655 A
C50    C85     1.405   .     A
C51    C50     1.435   1_455 A
C51    C52     1.411   .     A
C51    C88     1.405   .     A
C52    C53     1.394   .     A
C52    H18     1.084   .     S
C53    C54     1.359   1_455 A
C53    C56     1.377   .     A
C54    C53     1.359   1_655 A
C54    C55     1.377   .     A
C55    N9      1.359   1_655 A
C55    N16     1.338   .     A
N9     C55     1.359   1_455 A
N9     C56     1.359   .     A
N9     Ni2     1.895   .     S
C56    N10     1.338   .     A
N10    C57     1.338   .     A
C57    N11     1.359   .     A
C57    C60     1.377   .     A
N11    C58     1.359   .     A
N11    Ni2     1.895   .     S
C58    C59     1.377   .     A
C58    N13     1.338   .     A
C59    C60     1.359   .     A
C59    C68     1.394   .     A
C60    C65     1.394   .     A
N12    C61     1.359   .     A
N12    C64     1.359   1_455 A
N12    Ni2     1.895   .     S
C61    N13     1.338   .     A
C61    C62     1.377   .     A
C62    C63     1.359   1_455 A
C62    C72     1.394   .     A
C63    C62     1.359   1_655 A
C63    C64     1.377   .     A
C63    C69     1.394   .     A
C64    N12     1.359   1_655 A
C64    N15     1.338   .     A
C65    C66     1.411   .     A
C65    H19     1.084   .     S
C66    C67     1.435   .     A
C66    C89     1.405   .     A
C67    C68     1.411   .     A
C67    C92     1.405   .     A
C68    H20     1.084   .     S
C69    C70     1.411   .     A
C69    H21     1.084   .     S
C70    C71     1.435   1_655 A
C70    C93     1.405   .     A
C71    C70     1.435   1_455 A
C71    C72     1.411   .     A
C71    C96     1.405   .     A
C72    H22     1.084   .     S
N14    C73     1.359   .     A
N14    C76     1.359   .     A
N14    Ni2     1.895   1_655 S
C73    N15     1.338   .     A
C73    C74     1.377   .     A
C74    C75     1.359   .     A
C74    C80     1.394   .     A
C75    C76     1.377   .     A
C75    C77     1.394   .     A
C76    N16     1.338   .     A
C77    C78     1.411   .     A
C77    H23     1.084   .     S
C78    C79     1.435   .     A
C78    C81     1.405   .     A
C79    C80     1.411   .     A
C79    C84     1.405   .     A
C80    H24     1.084   .     S
C81    C82     1.396   .     A
C81    H25     1.083   .     S
C82    C83     1.374   .     A
C82    O9      1.381   .     S
C83    C84     1.396   .     A
C83    O10     1.381   .     S
C84    H26     1.083   .     S
C85    C86     1.396   .     A
C85    H27     1.083   .     S
C86    C87     1.374   1_655 A
C86    O11     1.381   .     S
C87    C86     1.374   1_455 A
C87    C88     1.396   .     A
C87    O12     1.381   .     S
C88    H28     1.083   .     S
C89    C90     1.396   .     A
C89    H29     1.083   .     S
C90    C91     1.374   .     A
C90    O13     1.381   .     S
C91    C92     1.396   .     A
C91    O14     1.381   .     S
C92    H30     1.083   .     S
C93    C94     1.396   .     A
C93    H31     1.083   .     S
C94    C95     1.374   1_655 A
C94    O15     1.381   .     S
C95    C94     1.374   1_455 A
C95    C96     1.396   .     A
C95    O16     1.381   .     S
C96    H32     1.083   .     S
O9     Cu10    1.812   .     S
O10    Cu10    1.812   .     S
O11    Cu8     1.812   1_655 S
O12    Cu8     1.812   .     S
O13    Cu10    1.812   .     S
O14    Cu10    1.812   .     S
O15    Cu6     1.812   1_655 S
O16    Cu6     1.812   .     S
Ni2    N14     1.895   1_455 S
C97    C98     1.411   .     A
C97    C102    1.394   .     A
C97    H33     1.084   .     S
C98    C99     1.435   1_565 A
C98    C133    1.405   .     A
C99    C98     1.435   1_545 A
C99    C100    1.411   .     A
C99    C136    1.405   .     A
C100   C101    1.394   .     A
C100   H34     1.084   .     S
C101   C102    1.359   1_545 A
C101   C104    1.377   .     A
C102   C101    1.359   1_565 A
C102   C103    1.377   .     A
C103   N17     1.359   1_565 A
C103   N24     1.338   .     A
N17    C103    1.359   1_545 A
N17    C104    1.359   .     A
N17    Ni3     1.895   .     S
C104   N18     1.338   .     A
N18    C105    1.338   .     A
C105   N19     1.359   .     A
C105   C108    1.377   .     A
N19    C106    1.359   .     A
N19    Ni3     1.895   .     S
C106   C107    1.377   .     A
C106   N21     1.338   .     A
C107   C108    1.359   .     A
C107   C116    1.394   .     A
C108   C113    1.394   .     A
N20    C109    1.359   .     A
N20    C112    1.359   1_545 A
N20    Ni3     1.895   .     S
C109   N21     1.338   .     A
C109   C110    1.377   .     A
C110   C111    1.358   1_545 A
C110   C120    1.394   .     A
C111   C110    1.358   1_565 A
C111   C112    1.377   .     A
C111   C117    1.394   .     A
C112   N20     1.359   1_565 A
C112   N23     1.338   .     A
C113   C114    1.411   .     A
C113   H35     1.084   .     S
C114   C115    1.435   .     A
C114   C137    1.405   .     A
C115   C116    1.411   .     A
C115   C140    1.405   .     A
C116   H36     1.084   .     S
C117   C118    1.412   .     A
C117   H37     1.084   .     S
C118   C119    1.432   1_565 A
C118   C141    1.403   .     A
C119   C118    1.432   1_545 A
C119   C120    1.411   .     A
C119   C144    1.403   .     A
C120   H38     1.084   .     S
N22    C121    1.359   .     A
N22    C124    1.359   .     A
N22    Ni3     1.895   1_565 S
C121   N23     1.338   .     A
C121   C122    1.377   .     A
C122   C123    1.359   .     A
C122   C128    1.394   .     A
C123   C124    1.377   .     A
C123   C125    1.394   .     A
C124   N24     1.338   .     A
C125   C126    1.411   .     A
C125   H39     1.084   .     S
C126   C127    1.435   .     A
C126   C129    1.405   .     A
C127   C128    1.411   .     A
C127   C132    1.405   .     A
C128   H40     1.084   .     S
C129   C130    1.396   .     A
C129   H41     1.083   .     S
C130   C131    1.374   .     A
C130   O17     1.381   .     S
C131   C132    1.396   .     A
C131   O18     1.381   .     S
C132   H42     1.083   .     S
C133   C134    1.396   .     A
C133   H43     1.083   .     S
C134   C135    1.374   1_565 A
C134   O19     1.381   .     S
C135   C134    1.374   1_545 A
C135   C136    1.396   .     A
C135   O20     1.381   .     S
C136   H44     1.083   .     S
C137   C138    1.396   .     A
C137   H45     1.083   .     S
C138   C139    1.374   .     A
C138   O21     1.381   .     S
C139   C140    1.396   .     A
C139   O22     1.381   .     S
C140   H46     1.083   .     S
C141   C142    1.397   .     A
C141   H47     1.084   .     S
C142   C143    1.412   1_565 A
C142   O23     1.395   .     S
C143   C142    1.412   1_545 A
C143   C144    1.397   .     A
C143   O24     1.395   .     S
C144   H48     1.084   .     S
O17    Cu1     1.812   .     S
O18    Cu1     1.812   .     S
O19    Cu5     1.812   1_565 S
O20    Cu5     1.812   .     S
O21    Cu1     1.812   .     S
O22    Cu1     1.812   .     S
O23    Zn1     1.800   1_565 S
O24    Zn1     1.800   .     S
Ni3    N22     1.895   1_545 S
C145   C146    1.411   .     A
C145   C150    1.394   .     A
C145   H49     1.084   .     S
C146   C147    1.435   1_655 A
C146   C181    1.405   .     A
C147   C146    1.435   1_455 A
C147   C148    1.411   .     A
C147   C184    1.405   .     A
C148   C149    1.394   .     A
C148   H50     1.084   .     S
C149   C150    1.359   1_455 A
C149   C152    1.377   .     A
C150   C149    1.359   1_655 A
C150   C151    1.377   .     A
C151   N25     1.359   1_655 A
C151   N32     1.338   .     A
N25    C151    1.359   1_455 A
N25    C152    1.359   .     A
N25    Ni4     1.895   .     S
C152   N26     1.338   .     A
N26    C153    1.338   .     A
C153   N27     1.359   .     A
C153   C156    1.377   .     A
N27    C154    1.359   .     A
N27    Ni4     1.895   .     S
C154   C155    1.377   .     A
C154   N29     1.338   .     A
C155   C156    1.359   .     A
C155   C164    1.394   .     A
C156   C161    1.394   .     A
N28    C157    1.359   .     A
N28    C160    1.359   1_455 A
N28    Ni4     1.895   .     S
C157   N29     1.338   .     A
C157   C158    1.377   .     A
C158   C159    1.358   1_455 A
C158   C168    1.394   .     A
C159   C158    1.358   1_655 A
C159   C160    1.377   .     A
C159   C165    1.394   .     A
C160   N28     1.359   1_655 A
C160   N31     1.338   .     A
C161   C162    1.411   .     A
C161   H51     1.084   .     S
C162   C163    1.435   .     A
C162   C185    1.405   .     A
C163   C164    1.411   .     A
C163   C188    1.405   .     A
C164   H52     1.084   .     S
C165   C166    1.412   .     A
C165   H53     1.084   .     S
C166   C167    1.432   1_655 A
C166   C189    1.403   .     A
C167   C166    1.432   1_455 A
C167   C168    1.411   .     A
C167   C192    1.403   .     A
C168   H54     1.084   .     S
N30    C169    1.359   .     A
N30    C172    1.359   .     A
N30    Ni4     1.895   1_655 S
C169   N31     1.338   .     A
C169   C170    1.377   .     A
C170   C171    1.359   .     A
C170   C176    1.394   .     A
C171   C172    1.377   .     A
C171   C173    1.394   .     A
C172   N32     1.338   .     A
C173   C174    1.411   .     A
C173   H55     1.084   .     S
C174   C175    1.435   .     A
C174   C177    1.405   .     A
C175   C176    1.411   .     A
C175   C180    1.405   .     A
C176   H56     1.084   .     S
C177   C178    1.396   .     A
C177   H57     1.083   .     S
C178   C179    1.374   .     A
C178   O25     1.381   .     S
C179   C180    1.396   .     A
C179   O26     1.381   .     S
C180   H58     1.083   .     S
C181   C182    1.396   .     A
C181   H59     1.083   .     S
C182   C183    1.374   1_655 A
C182   O27     1.381   .     S
C183   C182    1.374   1_455 A
C183   C184    1.396   .     A
C183   O28     1.381   .     S
C184   H60     1.083   .     S
C185   C186    1.396   .     A
C185   H61     1.083   .     S
C186   C187    1.374   .     A
C186   O29     1.381   .     S
C187   C188    1.396   .     A
C187   O30     1.381   .     S
C188   H62     1.083   .     S
C189   C190    1.397   .     A
C189   H63     1.084   .     S
C190   C191    1.412   1_655 A
C190   O31     1.395   .     S
C191   C190    1.412   1_455 A
C191   C192    1.397   .     A
C191   O32     1.395   .     S
C192   H64     1.084   .     S
O25    Cu2     1.812   .     S
O26    Cu2     1.812   .     S
O27    Cu6     1.812   1_655 S
O28    Cu6     1.812   .     S
O29    Cu2     1.812   .     S
O30    Cu2     1.812   .     S
O31    Zn2     1.800   1_655 S
O32    Zn2     1.800   .     S
Ni4    N30     1.895   1_455 S
C193   C194    1.411   .     A
C193   C198    1.394   .     A
C193   H65     1.084   .     S
C194   C195    1.435   1_545 A
C194   C229    1.405   .     A
C195   C194    1.435   1_565 A
C195   C196    1.411   .     A
C195   C232    1.405   .     A
C196   C197    1.394   .     A
C196   H66     1.084   .     S
C197   C198    1.359   1_565 A
C197   C200    1.377   .     A
C198   C197    1.359   1_545 A
C198   C199    1.377   .     A
C199   N33     1.359   .     A
C199   N40     1.338   .     A
N33    C200    1.359   1_545 A
N33    Ni5     1.895   .     S
C200   N33     1.359   1_565 A
C200   N34     1.338   .     A
N34    C201    1.338   .     A
C201   N35     1.359   .     A
C201   C204    1.377   .     A
N35    C202    1.359   .     A
N35    Ni5     1.895   1_565 S
C202   C203    1.377   .     A
C202   N37     1.338   .     A
C203   C204    1.359   .     A
C203   C212    1.394   .     A
C204   C209    1.394   .     A
N36    C205    1.359   1_545 A
N36    C208    1.359   .     A
N36    Ni5     1.895   .     S
C205   N36     1.359   1_565 A
C205   N37     1.338   .     A
C205   C206    1.377   .     A
C206   C207    1.358   1_565 A
C206   C216    1.394   .     A
C207   C206    1.358   1_545 A
C207   C208    1.377   .     A
C207   C213    1.394   .     A
C208   N39     1.338   .     A
C209   C210    1.411   .     A
C209   H67     1.084   .     S
C210   C211    1.435   .     A
C210   C233    1.405   .     A
C211   C212    1.411   .     A
C211   C236    1.405   .     A
C212   H68     1.084   .     S
C213   C214    1.411   .     A
C213   H69     1.084   .     S
C214   C215    1.432   1_545 A
C214   C237    1.403   .     A
C215   C214    1.432   1_565 A
C215   C216    1.412   .     A
C215   C240    1.403   .     A
C216   H70     1.084   .     S
N38    C217    1.359   .     A
N38    C220    1.359   .     A
N38    Ni5     1.895   .     S
C217   N39     1.338   .     A
C217   C218    1.377   .     A
C218   C219    1.359   .     A
C218   C224    1.394   .     A
C219   C220    1.377   .     A
C219   C221    1.394   .     A
C220   N40     1.338   .     A
C221   C222    1.411   .     A
C221   H71     1.084   .     S
C222   C223    1.435   .     A
C222   C225    1.405   .     A
C223   C224    1.411   .     A
C223   C228    1.405   .     A
C224   H72     1.084   .     S
C225   C226    1.396   .     A
C225   H73     1.083   .     S
C226   C227    1.374   .     A
C226   O33     1.381   .     S
C227   C228    1.396   .     A
C227   O34     1.381   .     S
C228   H74     1.083   .     S
C229   C230    1.396   .     A
C229   H75     1.083   .     S
C230   C231    1.374   1_545 A
C230   O35     1.381   .     S
C231   C230    1.374   1_565 A
C231   C232    1.396   .     A
C231   O36     1.381   .     S
C232   H76     1.083   .     S
C233   C234    1.396   .     A
C233   H77     1.083   .     S
C234   C235    1.374   .     A
C234   O37     1.381   .     S
C235   C236    1.396   .     A
C235   O38     1.381   .     S
C236   H78     1.083   .     S
C237   C238    1.397   .     A
C237   H79     1.084   .     S
C238   C239    1.412   1_545 A
C238   O39     1.395   .     S
C239   C238    1.412   1_565 A
C239   C240    1.397   .     A
C239   O40     1.395   .     S
C240   H80     1.084   .     S
O33    Cu3     1.812   .     S
O34    Cu3     1.812   .     S
O35    Cu7     1.812   .     S
O36    Cu7     1.812   1_565 S
O37    Cu3     1.812   .     S
O38    Cu3     1.812   .     S
O39    Zn2     1.800   .     S
O40    Zn2     1.800   1_565 S
Ni5    N35     1.895   1_545 S
C241   C242    1.411   .     A
C241   C246    1.394   .     A
C241   H81     1.084   .     S
C242   C243    1.435   1_455 A
C242   C277    1.405   .     A
C243   C242    1.435   1_655 A
C243   C244    1.411   .     A
C243   C280    1.405   .     A
C244   C245    1.394   .     A
C244   H82     1.084   .     S
C245   C246    1.359   1_655 A
C245   C248    1.377   .     A
C246   C245    1.359   1_455 A
C246   C247    1.377   .     A
C247   N41     1.359   .     A
C247   N48     1.338   .     A
N41    C248    1.359   1_455 A
N41    Ni6     1.895   .     S
C248   N41     1.359   1_655 A
C248   N42     1.338   .     A
N42    C249    1.338   .     A
C249   N43     1.359   .     A
C249   C252    1.377   .     A
N43    C250    1.359   .     A
N43    Ni6     1.895   1_655 S
C250   C251    1.377   .     A
C250   N45     1.338   .     A
C251   C252    1.359   .     A
C251   C260    1.394   .     A
C252   C257    1.394   .     A
N44    C253    1.359   1_455 A
N44    C256    1.359   .     A
N44    Ni6     1.895   .     S
C253   N44     1.359   1_655 A
C253   N45     1.338   .     A
C253   C254    1.377   .     A
C254   C255    1.358   1_655 A
C254   C264    1.394   .     A
C255   C254    1.358   1_455 A
C255   C256    1.377   .     A
C255   C261    1.394   .     A
C256   N47     1.338   .     A
C257   C258    1.411   .     A
C257   H83     1.084   .     S
C258   C259    1.435   .     A
C258   C281    1.405   .     A
C259   C260    1.411   .     A
C259   C284    1.405   .     A
C260   H84     1.084   .     S
C261   C262    1.411   .     A
C261   H85     1.084   .     S
C262   C263    1.432   1_455 A
C262   C285    1.403   .     A
C263   C262    1.432   1_655 A
C263   C264    1.412   .     A
C263   C288    1.403   .     A
C264   H86     1.084   .     S
N46    C265    1.359   .     A
N46    C268    1.359   .     A
N46    Ni6     1.895   .     S
C265   N47     1.338   .     A
C265   C266    1.377   .     A
C266   C267    1.359   .     A
C266   C272    1.394   .     A
C267   C268    1.377   .     A
C267   C269    1.394   .     A
C268   N48     1.338   .     A
C269   C270    1.411   .     A
C269   H87     1.084   .     S
C270   C271    1.435   .     A
C270   C273    1.405   .     A
C271   C272    1.411   .     A
C271   C276    1.405   .     A
C272   H88     1.084   .     S
C273   C274    1.396   .     A
C273   H89     1.083   .     S
C274   C275    1.374   .     A
C274   O41     1.381   .     S
C275   C276    1.396   .     A
C275   O42     1.381   .     S
C276   H90     1.083   .     S
C277   C278    1.396   .     A
C277   H91     1.083   .     S
C278   C279    1.374   1_455 A
C278   O43     1.381   .     S
C279   C278    1.374   1_655 A
C279   C280    1.396   .     A
C279   O44     1.381   .     S
C280   H92     1.083   .     S
C281   C282    1.396   .     A
C281   H93     1.083   .     S
C282   C283    1.374   .     A
C282   O45     1.381   .     S
C283   C284    1.396   .     A
C283   O46     1.381   .     S
C284   H94     1.083   .     S
C285   C286    1.397   .     A
C285   H95     1.084   .     S
C286   C287    1.412   1_455 A
C286   O47     1.395   .     S
C287   C286    1.412   1_655 A
C287   C288    1.397   .     A
C287   O48     1.395   .     S
C288   H96     1.084   .     S
O41    Cu4     1.812   .     S
O42    Cu4     1.812   .     S
O43    Cu8     1.812   .     S
O44    Cu8     1.812   1_655 S
O45    Cu4     1.812   .     S
O46    Cu4     1.812   .     S
O47    Zn1     1.800   .     S
O48    Zn1     1.800   1_655 S
Ni6    N43     1.895   1_455 S
Zn1    O23     1.800   1_545 S
Zn1    O48     1.800   1_455 S
Zn2    O40     1.800   1_545 S
Zn2    O31     1.800   1_455 S
Cu5    O5      1.812   1_545 S
Cu5    O19     1.812   1_545 S
Cu6    O27     1.812   1_455 S
Cu6    O15     1.812   1_455 S
Cu7    O1      1.812   1_545 S
Cu7    O36     1.812   1_545 S
Cu8    O11     1.812   1_455 S
Cu8    O44     1.812   1_455 S
Cu9    O3      1.812   1_554 S
Cu9    O7      1.812   1_554 S
