data_cdn-PcM_O-Zntet
_audit_creation_date              2021-11-06
_audit_creation_method            'Materials Studio'
_symmetry_space_group_name_H-M    'P1'
_symmetry_Int_Tables_number       1
_symmetry_cell_setting            triclinic
loop_
_symmetry_equiv_pos_as_xyz
  x,y,z
_cell_length_a                    17.9089
_cell_length_b                    17.9089
_cell_length_c                    142.7004
_cell_angle_alpha                 89.9980
_cell_angle_beta                  90.0000
_cell_angle_gamma                 90.0013
loop_
_atom_site_label
_atom_site_type_symbol
_atom_site_fract_x
_atom_site_fract_y
_atom_site_fract_z
_atom_site_U_iso_or_equiv
_atom_site_adp_type
_atom_site_occupancy
C1     C     0.92072   0.00007   0.09950   0.00000  Uiso   1.00
C2     C     0.96135   0.00006   0.10794   0.00000  Uiso   1.00
C3     C     0.03887   0.00006   0.10794   0.00000  Uiso   1.00
C4     C     0.07951   0.00006   0.09950   0.00000  Uiso   1.00
C5     C     0.03818   0.00007   0.09119   0.00000  Uiso   1.00
C6     C     0.96205   0.00007   0.09119   0.00000  Uiso   1.00
C7     C     0.94043   0.00006   0.08193   0.00000  Uiso   1.00
N1     N     0.00012   0.00005   0.07604   0.00000  Uiso   1.00
C8     C     0.05980   0.00006   0.08193   0.00000  Uiso   1.00
N2     N     0.13131   1.00004   0.07922   0.00000  Uiso   1.00
C9     C     0.15293   1.00003   0.07024   0.00000  Uiso   1.00
N3     N     0.10597   0.00003   0.06275   0.00000  Uiso   1.00
C10    C     0.15293   0.00003   0.05526   0.00000  Uiso   1.00
C11    C     0.22667   0.00002   0.05798   0.00000  Uiso   1.00
C12    C     0.22667   1.00002   0.06753   0.00000  Uiso   1.00
N4     N     0.00012   0.00005   0.04947   0.00000  Uiso   1.00
C13    C     0.05980   0.00005   0.04358   0.00000  Uiso   1.00
N5     N     0.13131   0.00004   0.04629   0.00000  Uiso   1.00
C14    C     0.03818   0.00006   0.03432   0.00000  Uiso   1.00
C15    C     0.96206   0.00006   0.03432   0.00000  Uiso   1.00
C16    C     0.94043   0.00006   0.04358   0.00000  Uiso   1.00
C17    C     0.29293   1.00001   0.07272   0.00000  Uiso   1.00
C18    C     0.36012   1.00000   0.06762   0.00000  Uiso   1.00
C19    C     0.36012   1.00000   0.05789   0.00000  Uiso   1.00
C20    C     0.29292   0.00001   0.05279   0.00000  Uiso   1.00
C21    C     0.92073   0.00006   0.02600   0.00000  Uiso   1.00
C22    C     0.96136   0.00006   0.01757   0.00000  Uiso   1.00
C23    C     0.03888   0.00006   0.01757   0.00000  Uiso   1.00
C24    C     0.07951   0.00006   0.02601   0.00000  Uiso   1.00
N6     N     0.89426   0.00003   0.06275   0.00000  Uiso   1.00
C25    C     0.84731   1.00003   0.05526   0.00000  Uiso   1.00
N7     N     0.86892   1.00004   0.04629   0.00000  Uiso   1.00
C26    C     0.77357   1.00002   0.05798   0.00000  Uiso   1.00
C27    C     0.77357   0.00002   0.06753   0.00000  Uiso   1.00
C28    C     0.84731   0.00003   0.07024   0.00000  Uiso   1.00
C29    C     0.70731   0.00001   0.07272   0.00000  Uiso   1.00
C30    C     0.64011  -0.00000   0.06762   0.00000  Uiso   1.00
C31    C     0.64012   1.00000   0.05789   0.00000  Uiso   1.00
C32    C     0.70731   1.00001   0.05279   0.00000  Uiso   1.00
N8     N     0.86892   0.00004   0.07922   0.00000  Uiso   1.00
H1     H     0.86028   0.00006   0.09946   0.00000  Uiso   1.00
O1     O     0.92760   0.00006   0.11663   0.00000  Uiso   1.00
O2     O     0.07263   0.00006   0.11663   0.00000  Uiso   1.00
H2     H     0.13995   0.00006   0.09947   0.00000  Uiso   1.00
H3     H     0.29263   1.00001   0.08030   0.00000  Uiso   1.00
O3     O     0.42942   0.99999   0.07185   0.00000  Uiso   1.00
O4     O     0.42942   0.99998   0.05365   0.00000  Uiso   1.00
H4     H     0.29262   0.00001   0.04520   0.00000  Uiso   1.00
H5     H     0.86029   1.00006   0.02604   0.00000  Uiso   1.00
O5     O     0.92761   0.00006   0.00887   0.00000  Uiso   1.00
O6     O     0.07264   0.00006   0.00887   0.00000  Uiso   1.00
H6     H     0.13995   0.00006   0.02604   0.00000  Uiso   1.00
H7     H     0.70761   0.00001   0.08030   0.00000  Uiso   1.00
O7     O     0.57081   0.99999   0.07185   0.00000  Uiso   1.00
O8     O     0.57081   0.99999   0.05365   0.00000  Uiso   1.00
H8     H     0.70761   1.00001   0.04520   0.00000  Uiso   1.00
Ni1    Ni    0.00011   0.00004   0.06275   0.00000  Uiso   1.00
C33    C     0.00006   0.70730   0.57272   0.00000  Uiso   1.00
C34    C     0.00006   0.64011   0.56762   0.00000  Uiso   1.00
C35    C     0.00006   0.64011   0.55789   0.00000  Uiso   1.00
C36    C     0.00006   0.70730   0.55279   0.00000  Uiso   1.00
C37    C     0.00006   0.77356   0.55798   0.00000  Uiso   1.00
C38    C     0.00006   0.77356   0.56753   0.00000  Uiso   1.00
C39    C     0.00005   0.84730   0.57024   0.00000  Uiso   1.00
N9     N     0.00004   0.89425   0.56275   0.00000  Uiso   1.00
C40    C     0.00005   0.84730   0.55526   0.00000  Uiso   1.00
N10    N     1.00004   0.86892   0.54629   0.00000  Uiso   1.00
C41    C     1.00003   0.94043   0.54358   0.00000  Uiso   1.00
N11    N     0.00004   0.00011   0.54947   0.00000  Uiso   1.00
C42    C     0.00003   0.05980   0.54358   0.00000  Uiso   1.00
C43    C     0.00002   0.03819   0.53432   0.00000  Uiso   1.00
C44    C     1.00002   0.96206   0.53432   0.00000  Uiso   1.00
N12    N     0.00004   0.10597   0.56275   0.00000  Uiso   1.00
C45    C     0.00004   0.15292   0.55526   0.00000  Uiso   1.00
N13    N     0.00004   0.13131   0.54629   0.00000  Uiso   1.00
C46    C     0.00005   0.22666   0.55798   0.00000  Uiso   1.00
C47    C     0.00005   0.22666   0.56753   0.00000  Uiso   1.00
C48    C     0.00004   0.15292   0.57025   0.00000  Uiso   1.00
C49    C     1.00001   0.92074   0.52600   0.00000  Uiso   1.00
C50    C     1.00000   0.96138   0.51757   0.00000  Uiso   1.00
C51    C     1.00000   0.03890   0.51757   0.00000  Uiso   1.00
C52    C     0.00001   0.07953   0.52601   0.00000  Uiso   1.00
C53    C     0.00006   0.29292   0.57272   0.00000  Uiso   1.00
C54    C     0.00006   0.36011   0.56762   0.00000  Uiso   1.00
C55    C     0.00006   0.36011   0.55789   0.00000  Uiso   1.00
C56    C     0.00005   0.29292   0.55279   0.00000  Uiso   1.00
N14    N     0.00004   0.00010   0.57604   0.00000  Uiso   1.00
C57    C     1.00003   0.05979   0.58193   0.00000  Uiso   1.00
N15    N     1.00004   0.13130   0.57922   0.00000  Uiso   1.00
C58    C     1.00003   0.03816   0.59119   0.00000  Uiso   1.00
C59    C     0.00003   0.96204   0.59119   0.00000  Uiso   1.00
C60    C     0.00004   0.94042   0.58193   0.00000  Uiso   1.00
C61    C     0.00002   0.92071   0.59950   0.00000  Uiso   1.00
C62    C     0.00001   0.96134   0.60794   0.00000  Uiso   1.00
C63    C     1.00001   0.03886   0.60794   0.00000  Uiso   1.00
C64    C     1.00002   0.07949   0.59950   0.00000  Uiso   1.00
N16    N     0.00004   0.86891   0.57922   0.00000  Uiso   1.00
H9     H     0.00006   0.70759   0.58030   0.00000  Uiso   1.00
O9     O     0.00007   0.57080   0.57185   0.00000  Uiso   1.00
O10    O     0.00006   0.57080   0.55365   0.00000  Uiso   1.00
H10    H     0.00006   0.70761   0.54520   0.00000  Uiso   1.00
H11    H     1.00001   0.86030   0.52604   0.00000  Uiso   1.00
O11    O     0.99998   0.92764   0.50887   0.00000  Uiso   1.00
O12    O     0.99998   0.07267   0.50888   0.00000  Uiso   1.00
H12    H     0.00001   0.13997   0.52605   0.00000  Uiso   1.00
H13    H     1.00006   0.29261   0.58030   0.00000  Uiso   1.00
O13    O     0.00006   0.42941   0.57185   0.00000  Uiso   1.00
O14    O     0.00006   0.42942   0.55365   0.00000  Uiso   1.00
H14    H     0.00006   0.29262   0.54521   0.00000  Uiso   1.00
H15    H     0.00002   0.86027   0.59947   0.00000  Uiso   1.00
O15    O     0.99999   0.92759   0.61664   0.00000  Uiso   1.00
O16    O     0.99999   0.07261   0.61663   0.00000  Uiso   1.00
H16    H     1.00001   0.13993   0.59946   0.00000  Uiso   1.00
Ni2    Ni    0.00003   0.00011   0.56275   0.00000  Uiso   1.00
C65    C     0.92073   0.00006   0.97400   0.00000  Uiso   1.00
C66    C     0.96137   0.00006   0.98243   0.00000  Uiso   1.00
C67    C     0.03889   0.00006   0.98243   0.00000  Uiso   1.00
C68    C     0.07952   0.00005   0.97400   0.00000  Uiso   1.00
C69    C     0.03819   0.00005   0.96568   0.00000  Uiso   1.00
C70    C     0.96206   0.00006   0.96568   0.00000  Uiso   1.00
C71    C     0.94044   0.00005   0.95643   0.00000  Uiso   1.00
N17    N     0.00013   0.00005   0.95053   0.00000  Uiso   1.00
C72    C     0.05981   0.00004   0.95643   0.00000  Uiso   1.00
N18    N     0.13132   1.00003   0.95371   0.00000  Uiso   1.00
C73    C     0.15293   1.00001   0.94474   0.00000  Uiso   1.00
N19    N     0.10598   0.00002   0.93725   0.00000  Uiso   1.00
C74    C     0.15293   0.00002   0.92976   0.00000  Uiso   1.00
C75    C     0.22667   0.00000   0.93247   0.00000  Uiso   1.00
C76    C     0.22667   1.00000   0.94203   0.00000  Uiso   1.00
N20    N     0.00013   0.00006   0.92396   0.00000  Uiso   1.00
C77    C     0.05981   0.00007   0.91807   0.00000  Uiso   1.00
N21    N     0.13132   0.00005   0.92078   0.00000  Uiso   1.00
C78    C     0.03819   0.00010   0.90882   0.00000  Uiso   1.00
C79    C     0.96206   0.00011   0.90882   0.00000  Uiso   1.00
C80    C     0.94044   0.00008   0.91807   0.00000  Uiso   1.00
C81    C     0.29293   0.99999   0.94721   0.00000  Uiso   1.00
C82    C     0.36013   0.99998   0.94211   0.00000  Uiso   1.00
C83    C     0.36013   0.99999   0.93239   0.00000  Uiso   1.00
C84    C     0.29293  -0.00000   0.92729   0.00000  Uiso   1.00
C85    C     0.92073   0.00013   0.90050   0.00000  Uiso   1.00
C86    C     0.96136   0.00016   0.89207   0.00000  Uiso   1.00
C87    C     0.03888   0.00015   0.89207   0.00000  Uiso   1.00
C88    C     0.07952   0.00012   0.90050   0.00000  Uiso   1.00
N22    N     0.89426   0.00004   0.93725   0.00000  Uiso   1.00
C89    C     0.84731   1.00004   0.92976   0.00000  Uiso   1.00
N23    N     0.86893   1.00007   0.92078   0.00000  Uiso   1.00
C90    C     0.77357   0.00003   0.93247   0.00000  Uiso   1.00
C91    C     0.77358   0.00002   0.94203   0.00000  Uiso   1.00
C92    C     0.84732   0.00003   0.94474   0.00000  Uiso   1.00
C93    C     0.70732   0.00001   0.94721   0.00000  Uiso   1.00
C94    C     0.64012   0.00000   0.94211   0.00000  Uiso   1.00
C95    C     0.64012   1.00001   0.93239   0.00000  Uiso   1.00
C96    C     0.70732   1.00002   0.92729   0.00000  Uiso   1.00
N24    N     0.86893   0.00004   0.95371   0.00000  Uiso   1.00
H17    H     0.86029   0.00006   0.97396   0.00000  Uiso   1.00
O17    O     0.92761   0.00006   0.99113   0.00000  Uiso   1.00
O18    O     0.07264   0.00006   0.99113   0.00000  Uiso   1.00
H18    H     0.13996   1.00005   0.97396   0.00000  Uiso   1.00
H19    H     0.29263   0.99998   0.95480   0.00000  Uiso   1.00
O19    O     0.42943   0.99997   0.94635   0.00000  Uiso   1.00
O20    O     0.42943   0.99998   0.92815   0.00000  Uiso   1.00
H20    H     0.29263   0.00001   0.91970   0.00000  Uiso   1.00
H21    H     0.86029   1.00014   0.90054   0.00000  Uiso   1.00
O21    O     0.92761   0.00019   0.88337   0.00000  Uiso   1.00
O22    O     0.07263   0.00018   0.88337   0.00000  Uiso   1.00
H22    H     0.13996   0.00012   0.90054   0.00000  Uiso   1.00
H23    H     0.70762   0.00001   0.95480   0.00000  Uiso   1.00
O23    O     0.57082   0.99999   0.94635   0.00000  Uiso   1.00
O24    O     0.57082   1.00000   0.92815   0.00000  Uiso   1.00
H24    H     0.70761   1.00003   0.91970   0.00000  Uiso   1.00
Ni3    Ni    0.00012   0.00004   0.93725   0.00000  Uiso   1.00
C97    C     0.00006   0.70743   0.44721   0.00000  Uiso   1.00
C98    C     0.00006   0.64024   0.44211   0.00000  Uiso   1.00
C99    C     0.00006   0.64024   0.43239   0.00000  Uiso   1.00
C100   C     0.00006   0.70743   0.42729   0.00000  Uiso   1.00
C101   C     0.00005   0.77369   0.43247   0.00000  Uiso   1.00
C102   C     0.00005   0.77369   0.44203   0.00000  Uiso   1.00
C103   C     0.00004   0.84743   0.44474   0.00000  Uiso   1.00
N25    N     0.00004   0.89438   0.43725   0.00000  Uiso   1.00
C104   C     0.00004   0.84743   0.42976   0.00000  Uiso   1.00
N26    N     1.00004   0.86906   0.42078   0.00000  Uiso   1.00
C105   C     1.00003   0.94057   0.41807   0.00000  Uiso   1.00
N27    N     0.00004   0.00025   0.42396   0.00000  Uiso   1.00
C106   C     0.00003   0.05994   0.41807   0.00000  Uiso   1.00
C107   C     0.00002   0.03832   0.40882   0.00000  Uiso   1.00
C108   C     1.00002   0.96220   0.40882   0.00000  Uiso   1.00
N28    N     0.00004   0.10610   0.43725   0.00000  Uiso   1.00
C109   C     0.00005   0.15306   0.42976   0.00000  Uiso   1.00
N29    N     0.00004   0.13144   0.42079   0.00000  Uiso   1.00
C110   C     0.00006   0.22679   0.43247   0.00000  Uiso   1.00
C111   C     0.00005   0.22679   0.44203   0.00000  Uiso   1.00
C112   C     0.00005   0.15305   0.44474   0.00000  Uiso   1.00
C113   C     1.00000   0.92087   0.40050   0.00000  Uiso   1.00
C114   C     0.99998   0.96151   0.39207   0.00000  Uiso   1.00
C115   C     0.99999   0.03903   0.39207   0.00000  Uiso   1.00
C116   C     0.00001   0.07966   0.40050   0.00000  Uiso   1.00
C117   C     0.00006   0.29305   0.44722   0.00000  Uiso   1.00
C118   C     0.00006   0.36024   0.44212   0.00000  Uiso   1.00
C119   C     0.00006   0.36024   0.43239   0.00000  Uiso   1.00
C120   C     0.00006   0.29305   0.42729   0.00000  Uiso   1.00
N30    N     0.00003   0.00023   0.45054   0.00000  Uiso   1.00
C121   C     1.00003   0.05991   0.45643   0.00000  Uiso   1.00
N31    N     1.00004   0.13143   0.45372   0.00000  Uiso   1.00
C122   C     1.00002   0.03828   0.46568   0.00000  Uiso   1.00
C123   C     0.00002   0.96216   0.46568   0.00000  Uiso   1.00
C124   C     0.00003   0.94055   0.45643   0.00000  Uiso   1.00
C125   C     0.00001   0.92082   0.47400   0.00000  Uiso   1.00
C126   C     1.00000   0.96144   0.48243   0.00000  Uiso   1.00
C127   C     1.00000   0.03896   0.48243   0.00000  Uiso   1.00
C128   C     1.00001   0.07960   0.47400   0.00000  Uiso   1.00
N32    N     0.00004   0.86904   0.45371   0.00000  Uiso   1.00
H25    H     0.00005   0.70773   0.45480   0.00000  Uiso   1.00
O25    O     0.00006   0.57093   0.44635   0.00000  Uiso   1.00
O26    O     0.00006   0.57093   0.42815   0.00000  Uiso   1.00
H26    H     0.00006   0.70773   0.41970   0.00000  Uiso   1.00
H27    H     1.00000   0.86043   0.40054   0.00000  Uiso   1.00
O27    O     0.99996   0.92777   0.38337   0.00000  Uiso   1.00
O28    O     0.99997   0.07279   0.38337   0.00000  Uiso   1.00
H28    H     0.00000   0.14010   0.40054   0.00000  Uiso   1.00
H29    H     1.00006   0.29274   0.45480   0.00000  Uiso   1.00
O29    O     0.00006   0.42955   0.44635   0.00000  Uiso   1.00
O30    O     0.00007   0.42955   0.42815   0.00000  Uiso   1.00
H30    H     0.00006   0.29275   0.41970   0.00000  Uiso   1.00
H31    H     0.00001   0.86038   0.47396   0.00000  Uiso   1.00
O31    O     0.99998   0.92767   0.49113   0.00000  Uiso   1.00
O32    O     0.99998   0.07270   0.49113   0.00000  Uiso   1.00
H32    H     1.00000   0.14004   0.47396   0.00000  Uiso   1.00
Ni4    Ni    0.00003   0.00024   0.43725   0.00000  Uiso   1.00
C129   C     0.92067   0.00017   0.22497   0.00000  Uiso   1.00
C130   C     0.96027   0.00022   0.23349   0.00000  Uiso   1.00
C131   C     0.03992   0.00022   0.23349   0.00000  Uiso   1.00
C132   C     0.07953   0.00018   0.22498   0.00000  Uiso   1.00
C133   C     0.03808   0.00014   0.21669   0.00000  Uiso   1.00
C134   C     0.96212   0.00014   0.21669   0.00000  Uiso   1.00
C135   C     0.94046   0.00010   0.20744   0.00000  Uiso   1.00
N33    N     0.00010   0.00008   0.20154   0.00000  Uiso   1.00
C136   C     0.05975   0.00010   0.20744   0.00000  Uiso   1.00
N34    N     0.13127   1.00009   0.20472   0.00000  Uiso   1.00
C137   C     0.15290   0.00006   0.19575   0.00000  Uiso   1.00
N35    N     0.10596   0.00005   0.18826   0.00000  Uiso   1.00
C138   C     0.15291   0.00004   0.18077   0.00000  Uiso   1.00
C139   C     0.22665   0.00003   0.18348   0.00000  Uiso   1.00
C140   C     0.22664   1.00004   0.19304   0.00000  Uiso   1.00
N36    N     0.00011   0.00004   0.17497   0.00000  Uiso   1.00
C141   C     0.05979   0.00004   0.16908   0.00000  Uiso   1.00
N37    N     0.13130   0.00003   0.17179   0.00000  Uiso   1.00
C142   C     0.03817   0.00004   0.15983   0.00000  Uiso   1.00
C143   C     0.96204   0.00004   0.15983   0.00000  Uiso   1.00
C144   C     0.94042   0.00004   0.16908   0.00000  Uiso   1.00
C145   C     0.29290   1.00004   0.19823   0.00000  Uiso   1.00
C146   C     0.36010   1.00002   0.19313   0.00000  Uiso   1.00
C147   C     0.36010   1.00000   0.18340   0.00000  Uiso   1.00
C148   C     0.29291   0.00001   0.17830   0.00000  Uiso   1.00
C149   C     0.92072   1.00005   0.15151   0.00000  Uiso   1.00
C150   C     0.96135   0.00005   0.14308   0.00000  Uiso   1.00
C151   C     0.03887   0.00005   0.14308   0.00000  Uiso   1.00
C152   C     0.07950   0.00004   0.15151   0.00000  Uiso   1.00
N38    N     0.89425   0.00005   0.18826   0.00000  Uiso   1.00
C153   C     0.84729   1.00004   0.18077   0.00000  Uiso   1.00
N39    N     0.86891   1.00003   0.17179   0.00000  Uiso   1.00
C154   C     0.77356   0.00003   0.18348   0.00000  Uiso   1.00
C155   C     0.77356   0.00004   0.19304   0.00000  Uiso   1.00
C156   C     0.84731   0.00006   0.19575   0.00000  Uiso   1.00
C157   C     0.70730   0.00004   0.19822   0.00000  Uiso   1.00
C158   C     0.64011   0.00002   0.19313   0.00000  Uiso   1.00
C159   C     0.64010   1.00000   0.18340   0.00000  Uiso   1.00
C160   C     0.70729   1.00001   0.17830   0.00000  Uiso   1.00
N40    N     0.86894   0.00009   0.20472   0.00000  Uiso   1.00
H33    H     0.86023   0.00017   0.22486   0.00000  Uiso   1.00
O33    O     0.92213   0.00025   0.24201   0.00000  Uiso   1.00
O34    O     0.07805   0.00025   0.24201   0.00000  Uiso   1.00
H34    H     0.13997   0.00018   0.22486   0.00000  Uiso   1.00
H35    H     0.29260   1.00005   0.20581   0.00000  Uiso   1.00
O35    O     0.42941   1.00001   0.19736   0.00000  Uiso   1.00
O36    O     0.42941   0.99998   0.17916   0.00000  Uiso   1.00
H36    H     0.29261  -0.00000   0.17071   0.00000  Uiso   1.00
H37    H     0.86028   1.00005   0.15155   0.00000  Uiso   1.00
O37    O     0.92760   0.00005   0.13438   0.00000  Uiso   1.00
O38    O     0.07262   0.00005   0.13438   0.00000  Uiso   1.00
H38    H     0.13994   0.00005   0.15155   0.00000  Uiso   1.00
H39    H     0.70761   0.00005   0.20581   0.00000  Uiso   1.00
O39    O     0.57080   1.00001   0.19736   0.00000  Uiso   1.00
O40    O     0.57080   0.99998   0.17916   0.00000  Uiso   1.00
H40    H     0.70759   0.99999   0.17071   0.00000  Uiso   1.00
Ni5    Ni    0.00010   0.00004   0.18826   0.00000  Uiso   1.00
C161   C     0.00008   0.70731   0.69823   0.00000  Uiso   1.00
C162   C     0.00008   0.64012   0.69313   0.00000  Uiso   1.00
C163   C     0.00007   0.64012   0.68340   0.00000  Uiso   1.00
C164   C     0.00007   0.70731   0.67830   0.00000  Uiso   1.00
C165   C     0.00007   0.77357   0.68348   0.00000  Uiso   1.00
C166   C     0.00008   0.77358   0.69304   0.00000  Uiso   1.00
C167   C     0.00007   0.84732   0.69575   0.00000  Uiso   1.00
N41    N     0.00006   0.89426   0.68826   0.00000  Uiso   1.00
C168   C     0.00006   0.84731   0.68077   0.00000  Uiso   1.00
N42    N     1.00004   0.86892   0.67180   0.00000  Uiso   1.00
C169   C     1.00003   0.94043   0.66908   0.00000  Uiso   1.00
N43    N     0.00003   0.00012   0.67497   0.00000  Uiso   1.00
C170   C     0.00002   0.05981   0.66908   0.00000  Uiso   1.00
C171   C     0.00001   0.03818   0.65983   0.00000  Uiso   1.00
C172   C     1.00002   0.96205   0.65983   0.00000  Uiso   1.00
N44    N     0.00005   0.10597   0.68826   0.00000  Uiso   1.00
C173   C     0.00004   0.15293   0.68077   0.00000  Uiso   1.00
N45    N     0.00003   0.13132   0.67179   0.00000  Uiso   1.00
C174   C     0.00005   0.22667   0.68348   0.00000  Uiso   1.00
C175   C     0.00005   0.22666   0.69304   0.00000  Uiso   1.00
C176   C     0.00005   0.15291   0.69575   0.00000  Uiso   1.00
C177   C     1.00001   0.92072   0.65151   0.00000  Uiso   1.00
C178   C     1.00000   0.96135   0.64308   0.00000  Uiso   1.00
C179   C     1.00000   0.03887   0.64308   0.00000  Uiso   1.00
C180   C     0.00000   0.07951   0.65151   0.00000  Uiso   1.00
C181   C     0.00006   0.29291   0.69822   0.00000  Uiso   1.00
C182   C     0.00006   0.36011   0.69313   0.00000  Uiso   1.00
C183   C     0.00005   0.36012   0.68340   0.00000  Uiso   1.00
C184   C     0.00005   0.29293   0.67830   0.00000  Uiso   1.00
N46    N     0.00005   0.00012   0.70154   0.00000  Uiso   1.00
C185   C     1.00005   0.05976   0.70744   0.00000  Uiso   1.00
N47    N     1.00005   0.13128   0.70472   0.00000  Uiso   1.00
C186   C     0.00006   0.03810   0.71669   0.00000  Uiso   1.00
C187   C     0.00006   0.96214   0.71669   0.00000  Uiso   1.00
C188   C     0.00006   0.94047   0.70744   0.00000  Uiso   1.00
C189   C     0.00007   0.92070   0.72498   0.00000  Uiso   1.00
C190   C     0.00008   0.96030   0.73349   0.00000  Uiso   1.00
C191   C     1.00007   0.03995   0.73349   0.00000  Uiso   1.00
C192   C     1.00006   0.07955   0.72497   0.00000  Uiso   1.00
N48    N     0.00007   0.86895   0.70473   0.00000  Uiso   1.00
H41    H     0.00009   0.70762   0.70581   0.00000  Uiso   1.00
O41    O     0.00008   0.57081   0.69736   0.00000  Uiso   1.00
O42    O     0.00006   0.57082   0.67916   0.00000  Uiso   1.00
H42    H     0.00006   0.70762   0.67071   0.00000  Uiso   1.00
H43    H     1.00001   0.86028   0.65155   0.00000  Uiso   1.00
O43    O     0.99999   0.92759   0.63438   0.00000  Uiso   1.00
O44    O     0.99998   0.07262   0.63438   0.00000  Uiso   1.00
H44    H     0.00000   0.13995   0.65155   0.00000  Uiso   1.00
H45    H     1.00006   0.29261   0.70581   0.00000  Uiso   1.00
O45    O     0.00006   0.42942   0.69736   0.00000  Uiso   1.00
O46    O     0.00005   0.42943   0.67916   0.00000  Uiso   1.00
H46    H     0.00004   0.29264   0.67071   0.00000  Uiso   1.00
H47    H     0.00008   0.86025   0.72486   0.00000  Uiso   1.00
O47    O     1.00009   0.92217   0.74201   0.00000  Uiso   1.00
O48    O     1.00008   0.07809   0.74201   0.00000  Uiso   1.00
H48    H     1.00006   0.13999   0.72486   0.00000  Uiso   1.00
Ni6    Ni    0.00005   0.00012   0.68826   0.00000  Uiso   1.00
C193   C     0.92072   0.00027   0.84849   0.00000  Uiso   1.00
C194   C     0.96135   0.00026   0.85693   0.00000  Uiso   1.00
C195   C     0.03887   0.00026   0.85693   0.00000  Uiso   1.00
C196   C     0.07950   0.00026   0.84849   0.00000  Uiso   1.00
C197   C     0.03817   0.00027   0.84018   0.00000  Uiso   1.00
C198   C     0.96204   0.00027   0.84018   0.00000  Uiso   1.00
C199   C     0.94042   0.00026   0.83092   0.00000  Uiso   1.00
N49    N     0.00010   0.00025   0.82503   0.00000  Uiso   1.00
C200   C     0.05979   0.00025   0.83092   0.00000  Uiso   1.00
N50    N     0.13130   0.00024   0.82821   0.00000  Uiso   1.00
C201   C     0.15291   0.00023   0.81923   0.00000  Uiso   1.00
N51    N     0.10596   0.00023   0.81174   0.00000  Uiso   1.00
C202   C     0.15290   0.00021   0.80425   0.00000  Uiso   1.00
C203   C     0.22664   0.00020   0.80697   0.00000  Uiso   1.00
C204   C     0.22665   0.00021   0.81652   0.00000  Uiso   1.00
N52    N     0.00010   0.00021   0.79846   0.00000  Uiso   1.00
C205   C     0.05974   0.00020   0.79257   0.00000  Uiso   1.00
N53    N     0.13126   0.00020   0.79528   0.00000  Uiso   1.00
C206   C     0.03808   0.00019   0.78331   0.00000  Uiso   1.00
C207   C     0.96212   0.00019   0.78331   0.00000  Uiso   1.00
C208   C     0.94046   0.00020   0.79257   0.00000  Uiso   1.00
C209   C     0.29291   0.00020   0.82171   0.00000  Uiso   1.00
C210   C     0.36010   0.00018   0.81661   0.00000  Uiso   1.00
C211   C     0.36010   0.00016   0.80688   0.00000  Uiso   1.00
C212   C     0.29290   0.00018   0.80178   0.00000  Uiso   1.00
C213   C     0.92067   0.00017   0.77503   0.00000  Uiso   1.00
C214   C     0.96027   0.00016   0.76652   0.00000  Uiso   1.00
C215   C     0.03992   0.00016   0.76652   0.00000  Uiso   1.00
C216   C     0.07952   0.00018   0.77503   0.00000  Uiso   1.00
N54    N     0.89424   0.00023   0.81174   0.00000  Uiso   1.00
C217   C     0.84730   0.00021   0.80425   0.00000  Uiso   1.00
N55    N     0.86894   0.00019   0.79528   0.00000  Uiso   1.00
C218   C     0.77356   0.00020   0.80697   0.00000  Uiso   1.00
C219   C     0.77355   0.00022   0.81652   0.00000  Uiso   1.00
C220   C     0.84729   0.00023   0.81923   0.00000  Uiso   1.00
C221   C     0.70729   0.00021   0.82171   0.00000  Uiso   1.00
C222   C     0.64010   0.00018   0.81661   0.00000  Uiso   1.00
C223   C     0.64010   0.00017   0.80688   0.00000  Uiso   1.00
C224   C     0.70730   0.00017   0.80178   0.00000  Uiso   1.00
N56    N     0.86891   0.00025   0.82821   0.00000  Uiso   1.00
H49    H     0.86028   0.00028   0.84846   0.00000  Uiso   1.00
O49    O     0.92760   0.00025   0.86562   0.00000  Uiso   1.00
O50    O     0.07263   0.00024   0.86562   0.00000  Uiso   1.00
H50    H     0.13994   0.00025   0.84845   0.00000  Uiso   1.00
H51    H     0.29261   0.00021   0.82929   0.00000  Uiso   1.00
O51    O     0.42941   0.00016   0.82084   0.00000  Uiso   1.00
O52    O     0.42940   0.00014   0.80264   0.00000  Uiso   1.00
H52    H     0.29260   0.00016   0.79419   0.00000  Uiso   1.00
H53    H     0.86022   0.00017   0.77514   0.00000  Uiso   1.00
O53    O     0.92213   0.00014   0.75799   0.00000  Uiso   1.00
O54    O     0.07805   0.00015   0.75799   0.00000  Uiso   1.00
H54    H     0.13997   0.00018   0.77514   0.00000  Uiso   1.00
H55    H     0.70759   0.00022   0.82929   0.00000  Uiso   1.00
O55    O     0.57079   0.00016   0.82084   0.00000  Uiso   1.00
O56    O     0.57080   1.00014   0.80264   0.00000  Uiso   1.00
H56    H     0.70760   1.00016   0.79419   0.00000  Uiso   1.00
Ni7    Ni    0.00010   0.00022   0.81175   0.00000  Uiso   1.00
C225   C     0.99994   0.92090   0.34849   0.00000  Uiso   1.00
C226   C     0.99994   0.96153   0.35693   0.00000  Uiso   1.00
C227   C     0.99994   0.03905   0.35693   0.00000  Uiso   1.00
C228   C     0.99995   0.07969   0.34849   0.00000  Uiso   1.00
C229   C     0.99995   0.03836   0.34018   0.00000  Uiso   1.00
C230   C     0.99995   0.96223   0.34018   0.00000  Uiso   1.00
C231   C     0.99996   0.94061   0.33092   0.00000  Uiso   1.00
N57    N     0.99998   0.00030   0.32503   0.00000  Uiso   1.00
C232   C     0.99997   0.05999   0.33092   0.00000  Uiso   1.00
N58    N    -0.00001   0.13150   0.32821   0.00000  Uiso   1.00
C233   C     0.00001   0.15311   0.31923   0.00000  Uiso   1.00
N59    N     1.00001   0.10616   0.31174   0.00000  Uiso   1.00
C234   C     1.00003   0.15310   0.30425   0.00000  Uiso   1.00
C235   C     0.00003   0.22684   0.30697   0.00000  Uiso   1.00
C236   C     0.00002   0.22685   0.31652   0.00000  Uiso   1.00
N60    N     1.00002   0.00030   0.29846   0.00000  Uiso   1.00
C237   C     1.00003   0.05995   0.29257   0.00000  Uiso   1.00
N61    N     1.00003   0.13147   0.29528   0.00000  Uiso   1.00
C238   C     1.00004   0.03828   0.28331   0.00000  Uiso   1.00
C239   C     0.00004   0.96232   0.28331   0.00000  Uiso   1.00
C240   C     0.00002   0.94066   0.29257   0.00000  Uiso   1.00
C241   C     0.00002   0.29311   0.32171   0.00000  Uiso   1.00
C242   C     0.00003   0.36030   0.31661   0.00000  Uiso   1.00
C243   C     0.00004   0.36030   0.30688   0.00000  Uiso   1.00
C244   C     0.00005   0.29311   0.30178   0.00000  Uiso   1.00
C245   C     0.00005   0.92087   0.27503   0.00000  Uiso   1.00
C246   C     1.00006   0.96046   0.26652   0.00000  Uiso   1.00
C247   C     1.00007   0.04012   0.26652   0.00000  Uiso   1.00
C248   C     1.00005   0.07973   0.27503   0.00000  Uiso   1.00
N62    N     1.00000   0.89445   0.31175   0.00000  Uiso   1.00
C249   C     0.00002   0.84751   0.30425   0.00000  Uiso   1.00
N63    N     0.00002   0.86914   0.29528   0.00000  Uiso   1.00
C250   C     0.00002   0.77376   0.30697   0.00000  Uiso   1.00
C251   C     1.00000   0.77375   0.31652   0.00000  Uiso   1.00
C252   C     0.99999   0.84749   0.31924   0.00000  Uiso   1.00
C253   C     1.00000   0.70749   0.32171   0.00000  Uiso   1.00
C254   C     0.00001   0.64030   0.31661   0.00000  Uiso   1.00
C255   C     0.00003   0.64031   0.30688   0.00000  Uiso   1.00
C256   C     0.00003   0.70751   0.30178   0.00000  Uiso   1.00
N64    N     0.99997   0.86910   0.32821   0.00000  Uiso   1.00
H57    H     0.99994   0.86046   0.34846   0.00000  Uiso   1.00
O57    O     0.99993   0.92778   0.36562   0.00000  Uiso   1.00
O58    O     0.99994   0.07280   0.36562   0.00000  Uiso   1.00
H58    H    -0.00004   0.14013   0.34846   0.00000  Uiso   1.00
H59    H     0.00000   0.29281   0.32929   0.00000  Uiso   1.00
O59    O     0.00002   0.42961   0.32084   0.00000  Uiso   1.00
O60    O     0.00005   0.42961   0.30264   0.00000  Uiso   1.00
H60    H     0.00006   0.29281   0.29419   0.00000  Uiso   1.00
H61    H     0.00005   0.86043   0.27514   0.00000  Uiso   1.00
O61    O     1.00008   0.92232   0.25800   0.00000  Uiso   1.00
O62    O     1.00008   0.07824   0.25799   0.00000  Uiso   1.00
H62    H     1.00006   0.14017   0.27514   0.00000  Uiso   1.00
H63    H     0.99999   0.70779   0.32929   0.00000  Uiso   1.00
O63    O     0.00001   0.57099   0.32084   0.00000  Uiso   1.00
O64    O     0.00004   0.57100   0.30264   0.00000  Uiso   1.00
H64    H     0.00004   0.70781   0.29419   0.00000  Uiso   1.00
Ni8    Ni    1.00000   0.00030   0.31175   0.00000  Uiso   1.00
Zn1    Zn    1.00009   0.00027   0.25000   0.00000  Uiso   1.00
Zn2    Zn    1.00009   0.00014   0.75000   0.00000  Uiso   1.00
Cu1    Cu    0.00011   0.00004   0.12551   0.00000  Uiso   1.00
Cu2    Cu    0.99997   0.00010   0.62551   0.00000  Uiso   1.00
Cu3    Cu    0.00012   0.00020   0.87450   0.00000  Uiso   1.00
Cu4    Cu    0.99993   0.00028   0.37450   0.00000  Uiso   1.00
Cu5    Cu    0.50012   0.99997   0.06275   0.00000  Uiso   1.00
Cu6    Cu    0.00005   0.50011   0.56275   0.00000  Uiso   1.00
Cu7    Cu    0.50012   0.99997   0.93725   0.00000  Uiso   1.00
Cu8    Cu    0.00005   0.50024   0.43725   0.00000  Uiso   1.00
Cu9    Cu    0.00012   0.00004   0.00000   0.00000  Uiso   1.00
Cu10   Cu    0.99997   0.00017   0.50000   0.00000  Uiso   1.00
Cu11   Cu    0.50010   0.99998   0.18826   0.00000  Uiso   1.00
Cu12   Cu    0.00005   0.50012   0.68826   0.00000  Uiso   1.00
Cu13   Cu    0.50010   0.00013   0.81174   0.00000  Uiso   1.00
Cu14   Cu    0.00001   0.50030   0.31174   0.00000  Uiso   1.00
loop_
_geom_bond_atom_site_label_1
_geom_bond_atom_site_label_2
_geom_bond_distance
_geom_bond_site_symmetry_2
_ccdc_geom_bond_type
C1     C2      1.406   .     A
C1     C6      1.399   .     A
C1     H1      1.082   .     S
C2     C3      1.388   1_655 A
C2     O1      1.381   .     S
C3     C2      1.388   1_455 A
C3     C4      1.406   .     A
C3     O2      1.381   .     S
C4     C5      1.399   .     A
C4     H2      1.082   .     S
C5     C6      1.363   1_455 A
C5     C8      1.376   .     A
C6     C5      1.363   1_655 A
C6     C7      1.376   .     A
C7     N1      1.360   1_655 A
C7     N8      1.338   .     A
N1     C7      1.360   1_455 A
N1     C8      1.360   .     A
N1     Ni1     1.896   .     S
C8     N2      1.338   1_545 A
N2     C8      1.338   1_565 A
N2     C9      1.338   .     A
C9     N3      1.360   1_565 A
C9     C12     1.376   .     A
N3     C9      1.360   1_545 A
N3     C10     1.360   .     A
N3     Ni1     1.896   .     S
C10    C11     1.376   .     A
C10    N5      1.338   .     A
C11    C12     1.363   1_545 A
C11    C20     1.399   .     A
C12    C11     1.363   1_565 A
C12    C17     1.399   .     A
N4     C13     1.360   .     A
N4     C16     1.360   1_455 A
N4     Ni1     1.896   .     S
C13    N5      1.338   .     A
C13    C14     1.376   .     A
C14    C15     1.363   1_455 A
C14    C24     1.399   .     A
C15    C14     1.363   1_655 A
C15    C16     1.376   .     A
C15    C21     1.399   .     A
C16    N4      1.360   1_655 A
C16    N7      1.338   1_545 A
C17    C18     1.406   .     A
C17    H3      1.082   .     S
C18    C19     1.388   .     A
C18    O3      1.381   .     S
C19    C20     1.406   1_565 A
C19    O4      1.381   .     S
C20    C19     1.406   1_545 A
C20    H4      1.082   .     S
C21    C22     1.406   .     A
C21    H5      1.082   1_545 S
C22    C23     1.388   1_655 A
C22    O5      1.381   .     S
C23    C22     1.388   1_455 A
C23    C24     1.406   .     A
C23    O6      1.381   .     S
C24    H6      1.082   .     S
N6     C25     1.360   1_545 A
N6     C28     1.360   .     A
N6     Ni1     1.896   1_655 S
C25    N6      1.360   1_565 A
C25    N7      1.338   .     A
C25    C26     1.376   .     A
N7     C16     1.338   1_565 A
C26    C27     1.363   1_565 A
C26    C32     1.399   .     A
C27    C26     1.363   1_545 A
C27    C28     1.376   .     A
C27    C29     1.399   .     A
C28    N8      1.338   .     A
C29    C30     1.406   .     A
C29    H7      1.082   .     S
C30    C31     1.388   1_545 A
C30    O7      1.381   1_545 S
C31    C30     1.388   1_565 A
C31    C32     1.406   .     A
C31    O8      1.381   .     S
C32    H8      1.082   .     S
O1     Cu1     1.814   1_655 S
O2     Cu1     1.814   .     S
O3     Cu5     1.814   .     S
O4     Cu5     1.814   .     S
H5     C21     1.082   1_565 S
O5     Cu9     1.814   1_655 S
O6     Cu9     1.814   .     S
O7     C30     1.381   1_565 S
O7     Cu5     1.814   .     S
O8     Cu5     1.814   .     S
Ni1    N6      1.896   1_455 S
C33    C34     1.406   .     A
C33    C38     1.399   .     A
C33    H9      1.082   .     S
C34    C35     1.388   .     A
C34    O9      1.381   .     S
C35    C36     1.406   .     A
C35    O10     1.381   .     S
C36    C37     1.399   .     A
C36    H10     1.082   .     S
C37    C38     1.363   .     A
C37    C40     1.376   .     A
C38    C39     1.376   .     A
C39    N9      1.360   .     A
C39    N16     1.338   .     A
N9     C40     1.360   .     A
N9     Ni2     1.896   1_565 S
C40    N10     1.338   1_455 A
N10    C40     1.338   1_655 A
N10    C41     1.338   .     A
C41    N11     1.360   1_665 A
C41    C44     1.376   .     A
N11    C41     1.360   1_445 A
N11    C42     1.360   .     A
N11    Ni2     1.896   .     S
C42    C43     1.376   .     A
C42    N13     1.338   .     A
C43    C44     1.363   1_445 A
C43    C52     1.399   .     A
C44    C43     1.363   1_665 A
C44    C49     1.399   .     A
N12    C45     1.360   .     A
N12    C48     1.360   .     A
N12    Ni2     1.896   .     S
C45    N13     1.338   .     A
C45    C46     1.376   .     A
C46    C47     1.363   .     A
C46    C56     1.399   .     A
C47    C48     1.376   .     A
C47    C53     1.399   .     A
C48    N15     1.338   1_455 A
C49    C50     1.406   .     A
C49    H11     1.082   .     S
C50    C51     1.388   1_565 A
C50    O11     1.381   .     S
C51    C50     1.388   1_545 A
C51    C52     1.406   1_655 A
C51    O12     1.381   .     S
C52    C51     1.406   1_455 A
C52    H12     1.082   .     S
C53    C54     1.406   .     A
C53    H13     1.082   1_455 S
C54    C55     1.388   .     A
C54    O13     1.381   .     S
C55    C56     1.406   .     A
C55    O14     1.381   .     S
C56    H14     1.082   .     S
N14    C57     1.360   1_455 A
N14    C60     1.360   1_545 A
N14    Ni2     1.896   .     S
C57    N14     1.360   1_655 A
C57    N15     1.338   .     A
C57    C58     1.376   .     A
N15    C48     1.338   1_655 A
C58    C59     1.363   1_645 A
C58    C64     1.399   .     A
C59    C58     1.363   1_465 A
C59    C60     1.376   .     A
C59    C61     1.399   .     A
C60    N14     1.360   1_565 A
C60    N16     1.338   .     A
C61    C62     1.406   .     A
C61    H15     1.082   .     S
C62    C63     1.388   1_465 A
C62    O15     1.381   1_455 S
C63    C62     1.388   1_645 A
C63    C64     1.406   .     A
C63    O16     1.381   .     S
C64    H16     1.082   .     S
O9     Cu6     1.814   .     S
O10    Cu6     1.814   .     S
O11    Cu10    1.814   1_565 S
O12    Cu10    1.814   .     S
H13    C53     1.082   1_655 S
O13    Cu6     1.814   .     S
O14    Cu6     1.814   .     S
O15    C62     1.381   1_655 S
O15    Cu2     1.814   1_565 S
O16    Cu2     1.814   .     S
Ni2    N9      1.896   1_545 S
C65    C66     1.406   .     A
C65    C70     1.399   .     A
C65    H17     1.082   .     S
C66    C67     1.388   1_655 A
C66    O17     1.381   .     S
C67    C66     1.388   1_455 A
C67    C68     1.406   .     A
C67    O18     1.381   .     S
C68    C69     1.399   .     A
C68    H18     1.082   1_545 S
C69    C70     1.363   1_455 A
C69    C72     1.376   .     A
C70    C69     1.363   1_655 A
C70    C71     1.376   .     A
C71    N17     1.360   1_655 A
C71    N24     1.338   .     A
N17    C71     1.360   1_455 A
N17    C72     1.360   .     A
N17    Ni3     1.896   .     S
C72    N18     1.338   1_545 A
N18    C72     1.338   1_565 A
N18    C73     1.338   .     A
C73    N19     1.360   1_565 A
C73    C76     1.376   .     A
N19    C73     1.360   1_545 A
N19    C74     1.360   .     A
N19    Ni3     1.896   .     S
C74    C75     1.376   .     A
C74    N21     1.338   .     A
C75    C76     1.363   1_545 A
C75    C84     1.399   .     A
C76    C75     1.363   1_565 A
C76    C81     1.399   .     A
N20    C77     1.360   .     A
N20    C80     1.360   1_455 A
N20    Ni3     1.896   .     S
C77    N21     1.338   .     A
C77    C78     1.376   .     A
C78    C79     1.363   1_455 A
C78    C88     1.399   .     A
C79    C78     1.363   1_655 A
C79    C80     1.376   .     A
C79    C85     1.399   .     A
C80    N20     1.360   1_655 A
C80    N23     1.338   1_545 A
C81    C82     1.406   .     A
C81    H19     1.082   .     S
C82    C83     1.388   .     A
C82    O19     1.381   .     S
C83    C84     1.406   1_565 A
C83    O20     1.381   .     S
C84    C83     1.406   1_545 A
C84    H20     1.082   .     S
C85    C86     1.406   .     A
C85    H21     1.082   1_545 S
C86    C87     1.388   1_655 A
C86    O21     1.381   .     S
C87    C86     1.388   1_455 A
C87    C88     1.406   .     A
C87    O22     1.381   .     S
C88    H22     1.082   .     S
N22    C89     1.360   1_545 A
N22    C92     1.360   .     A
N22    Ni3     1.896   1_655 S
C89    N22     1.360   1_565 A
C89    N23     1.338   .     A
C89    C90     1.376   1_565 A
N23    C80     1.338   1_565 A
C90    C89     1.376   1_545 A
C90    C91     1.363   .     A
C90    C96     1.399   1_545 A
C91    C92     1.376   .     A
C91    C93     1.399   .     A
C92    N24     1.338   .     A
C93    C94     1.406   .     A
C93    H23     1.082   .     S
C94    C95     1.388   1_545 A
C94    O23     1.381   1_545 S
C95    C94     1.388   1_565 A
C95    C96     1.406   .     A
C95    O24     1.381   .     S
C96    C90     1.399   1_565 A
C96    H24     1.082   .     S
O17    Cu9     1.814   1_656 S
O18    Cu9     1.814   1_556 S
H18    C68     1.082   1_565 S
O19    Cu7     1.814   .     S
O20    Cu7     1.814   .     S
H21    C85     1.082   1_565 S
O21    Cu3     1.814   1_655 S
O22    Cu3     1.814   .     S
O23    C94     1.381   1_565 S
O23    Cu7     1.814   .     S
O24    Cu7     1.814   .     S
Ni3    N22     1.896   1_455 S
C97    C98     1.406   .     A
C97    C102    1.399   .     A
C97    H25     1.082   .     S
C98    C99     1.388   .     A
C98    O25     1.381   .     S
C99    C100    1.406   .     A
C99    O26     1.381   .     S
C100   C101    1.399   .     A
C100   H26     1.082   .     S
C101   C102    1.363   .     A
C101   C104    1.376   .     A
C102   C103    1.376   .     A
C103   N25     1.360   .     A
C103   N32     1.338   .     A
N25    C104    1.360   .     A
N25    Ni4     1.896   1_565 S
C104   N26     1.338   1_455 A
N26    C104    1.338   1_655 A
N26    C105    1.338   .     A
C105   N27     1.360   1_665 A
C105   C108    1.376   .     A
N27    C105    1.360   1_445 A
N27    C106    1.360   .     A
N27    Ni4     1.896   .     S
C106   C107    1.376   .     A
C106   N29     1.338   .     A
C107   C108    1.363   1_445 A
C107   C116    1.399   .     A
C108   C107    1.363   1_665 A
C108   C113    1.399   .     A
N28    C109    1.360   .     A
N28    C112    1.360   .     A
N28    Ni4     1.896   .     S
C109   N29     1.338   .     A
C109   C110    1.376   .     A
C110   C111    1.363   .     A
C110   C120    1.399   .     A
C111   C112    1.376   .     A
C111   C117    1.399   .     A
C112   N31     1.338   1_455 A
C113   C114    1.406   .     A
C113   H27     1.082   .     S
C114   C115    1.388   1_565 A
C114   O27     1.381   .     S
C115   C114    1.388   1_545 A
C115   C116    1.406   1_655 A
C115   O28     1.381   .     S
C116   C115    1.406   1_455 A
C116   H28     1.082   .     S
C117   C118    1.406   .     A
C117   H29     1.082   1_455 S
C118   C119    1.388   .     A
C118   O29     1.381   .     S
C119   C120    1.406   .     A
C119   O30     1.381   .     S
C120   H30     1.082   .     S
N30    C121    1.360   1_455 A
N30    C124    1.360   1_545 A
N30    Ni4     1.896   .     S
C121   N30     1.360   1_655 A
C121   N31     1.338   .     A
C121   C122    1.376   .     A
N31    C112    1.338   1_655 A
C122   C123    1.363   1_645 A
C122   C128    1.399   .     A
C123   C122    1.363   1_465 A
C123   C124    1.376   .     A
C123   C125    1.399   .     A
C124   N30     1.360   1_565 A
C124   N32     1.338   .     A
C125   C126    1.406   1_455 A
C125   H31     1.082   .     S
C126   C125    1.406   1_655 A
C126   C127    1.388   1_565 A
C126   O31     1.381   .     S
C127   C126    1.388   1_545 A
C127   C128    1.406   .     A
C127   O32     1.381   .     S
C128   H32     1.082   .     S
O25    Cu8     1.814   .     S
O26    Cu8     1.814   .     S
O27    Cu4     1.814   1_565 S
O28    Cu4     1.814   .     S
H29    C117    1.082   1_655 S
O29    Cu8     1.814   .     S
O30    Cu8     1.814   .     S
O31    Cu10    1.814   1_565 S
O32    Cu10    1.814   .     S
Ni4    N25     1.896   1_545 S
C129   C130    1.406   .     A
C129   C134    1.396   .     A
C129   H33     1.083   .     S
C130   C131    1.427   1_655 A
C130   O33     1.395   .     S
C131   C130    1.427   1_455 A
C131   C132    1.406   .     A
C131   O34     1.395   .     S
C132   C133    1.396   .     A
C132   H34     1.083   .     S
C133   C134    1.360   1_455 A
C133   C136    1.377   .     A
C134   C133    1.360   1_655 A
C134   C135    1.377   .     A
C135   N33     1.360   1_655 A
C135   N40     1.338   .     A
N33    C135    1.360   1_455 A
N33    C136    1.360   .     A
N33    Ni5     1.896   .     S
C136   N34     1.338   1_545 A
N34    C136    1.338   1_565 A
N34    C137    1.338   1_565 A
C137   N34     1.338   1_545 A
C137   N35     1.360   .     A
C137   C140    1.376   1_545 A
N35    C138    1.360   .     A
N35    Ni5     1.896   .     S
C138   C139    1.376   .     A
C138   N37     1.338   .     A
C139   C140    1.363   1_545 A
C139   C148    1.399   .     A
C140   C137    1.376   1_565 A
C140   C139    1.363   1_565 A
C140   C145    1.399   .     A
N36    C141    1.360   .     A
N36    C144    1.360   1_455 A
N36    Ni5     1.896   .     S
C141   N37     1.338   .     A
C141   C142    1.376   .     A
C142   C143    1.363   1_455 A
C142   C152    1.399   .     A
C143   C142    1.363   1_655 A
C143   C144    1.376   .     A
C143   C149    1.399   1_545 A
C144   N36     1.360   1_655 A
C144   N39     1.338   1_545 A
C145   C146    1.406   .     A
C145   H35     1.082   .     S
C146   C147    1.388   .     A
C146   O35     1.381   .     S
C147   C148    1.406   1_565 A
C147   O36     1.381   .     S
C148   C147    1.406   1_545 A
C148   H36     1.082   .     S
C149   C143    1.399   1_565 A
C149   C150    1.406   1_565 A
C149   H37     1.082   .     S
C150   C149    1.406   1_545 A
C150   C151    1.388   1_655 A
C150   O37     1.381   .     S
C151   C150    1.388   1_455 A
C151   C152    1.406   .     A
C151   O38     1.381   .     S
C152   H38     1.082   .     S
N38    C153    1.360   1_545 A
N38    C156    1.360   .     A
N38    Ni5     1.896   1_655 S
C153   N38     1.360   1_565 A
C153   N39     1.338   .     A
C153   C154    1.376   1_565 A
N39    C144    1.338   1_565 A
C154   C153    1.376   1_545 A
C154   C155    1.363   .     A
C154   C160    1.399   1_545 A
C155   C156    1.376   .     A
C155   C157    1.399   .     A
C156   N40     1.338   .     A
C157   C158    1.406   .     A
C157   H39     1.082   .     S
C158   C159    1.388   1_545 A
C158   O39     1.381   1_545 S
C159   C158    1.388   1_565 A
C159   C160    1.406   .     A
C159   O40     1.381   .     S
C160   C154    1.399   1_565 A
C160   H40     1.082   .     S
O33    Zn1     1.803   .     S
O34    Zn1     1.803   1_455 S
O35    Cu11    1.814   .     S
O36    Cu11    1.814   .     S
O37    Cu1     1.814   1_655 S
O38    Cu1     1.814   .     S
O39    C158    1.381   1_565 S
O39    Cu11    1.814   .     S
O40    Cu11    1.814   .     S
Ni5    N38     1.896   1_455 S
C161   C162    1.406   .     A
C161   C166    1.399   .     A
C161   H41     1.082   .     S
C162   C163    1.388   .     A
C162   O41     1.381   .     S
C163   C164    1.406   .     A
C163   O42     1.381   .     S
C164   C165    1.399   .     A
C164   H42     1.082   .     S
C165   C166    1.363   .     A
C165   C168    1.376   .     A
C166   C167    1.376   .     A
C167   N41     1.360   .     A
C167   N48     1.338   .     A
N41    C168    1.360   .     A
N41    Ni6     1.896   1_565 S
C168   N42     1.338   1_455 A
N42    C168    1.338   1_655 A
N42    C169    1.338   .     A
C169   N43     1.360   1_665 A
C169   C172    1.376   .     A
N43    C169    1.360   1_445 A
N43    C170    1.360   .     A
N43    Ni6     1.896   .     S
C170   C171    1.376   .     A
C170   N45     1.338   .     A
C171   C172    1.363   1_445 A
C171   C180    1.399   .     A
C172   C171    1.363   1_665 A
C172   C177    1.399   .     A
N44    C173    1.360   .     A
N44    C176    1.360   .     A
N44    Ni6     1.896   .     S
C173   N45     1.338   .     A
C173   C174    1.376   .     A
C174   C175    1.363   .     A
C174   C184    1.399   .     A
C175   C176    1.376   .     A
C175   C181    1.399   .     A
C176   N47     1.338   1_455 A
C177   C178    1.406   .     A
C177   H43     1.082   .     S
C178   C179    1.388   1_565 A
C178   O43     1.381   .     S
C179   C178    1.388   1_545 A
C179   C180    1.406   1_655 A
C179   O44     1.381   .     S
C180   C179    1.406   1_455 A
C180   H44     1.082   .     S
C181   C182    1.406   .     A
C181   H45     1.082   1_455 S
C182   C183    1.388   .     A
C182   O45     1.381   .     S
C183   C184    1.406   .     A
C183   O46     1.381   .     S
C184   H46     1.082   .     S
N46    C185    1.360   1_455 A
N46    C188    1.360   1_545 A
N46    Ni6     1.896   .     S
C185   N46     1.360   1_655 A
C185   N47     1.338   .     A
C185   C186    1.377   1_655 A
N47    C176    1.338   1_655 A
C186   C185    1.377   1_455 A
C186   C187    1.360   1_545 A
C186   C192    1.396   1_455 A
C187   C186    1.360   1_565 A
C187   C188    1.377   .     A
C187   C189    1.396   .     A
C188   N46     1.360   1_565 A
C188   N48     1.338   .     A
C189   C190    1.406   .     A
C189   H47     1.083   .     S
C190   C191    1.427   1_465 A
C190   O47     1.395   1_455 S
C191   C190    1.427   1_645 A
C191   C192    1.406   .     A
C191   O48     1.395   .     S
C192   C186    1.396   1_655 A
C192   H48     1.083   .     S
O41    Cu12    1.814   .     S
O42    Cu12    1.814   .     S
O43    Cu2     1.814   1_565 S
O44    Cu2     1.814   .     S
H45    C181    1.082   1_655 S
O45    Cu12    1.814   .     S
O46    Cu12    1.814   .     S
O47    C190    1.395   1_655 S
O47    Zn2     1.803   1_565 S
O48    Zn2     1.803   .     S
Ni6    N41     1.896   1_545 S
C193   C194    1.406   .     A
C193   C198    1.399   .     A
C193   H49     1.082   .     S
C194   C195    1.388   1_655 A
C194   O49     1.381   .     S
C195   C194    1.388   1_455 A
C195   C196    1.406   .     A
C195   O50     1.381   .     S
C196   C197    1.399   .     A
C196   H50     1.082   .     S
C197   C198    1.363   1_455 A
C197   C200    1.376   .     A
C198   C197    1.363   1_655 A
C198   C199    1.376   .     A
C199   N49     1.360   1_655 A
C199   N56     1.338   .     A
N49    C199    1.360   1_455 A
N49    C200    1.360   .     A
N49    Ni7     1.896   .     S
C200   N50     1.338   .     A
N50    C201    1.338   .     A
C201   N51     1.360   .     A
C201   C204    1.376   .     A
N51    C202    1.360   .     A
N51    Ni7     1.896   .     S
C202   C203    1.376   .     A
C202   N53     1.338   .     A
C203   C204    1.363   .     A
C203   C212    1.399   .     A
C204   C209    1.399   .     A
N52    C205    1.360   .     A
N52    C208    1.360   1_455 A
N52    Ni7     1.896   .     S
C205   N53     1.338   .     A
C205   C206    1.377   .     A
C206   C207    1.360   1_455 A
C206   C216    1.396   .     A
C207   C206    1.360   1_655 A
C207   C208    1.377   .     A
C207   C213    1.396   .     A
C208   N52     1.360   1_655 A
C208   N55     1.338   .     A
C209   C210    1.406   .     A
C209   H51     1.082   .     S
C210   C211    1.388   .     A
C210   O51     1.381   .     S
C211   C212    1.406   .     A
C211   O52     1.381   .     S
C212   H52     1.082   .     S
C213   C214    1.406   .     A
C213   H53     1.083   .     S
C214   C215    1.427   1_655 A
C214   O53     1.395   .     S
C215   C214    1.427   1_455 A
C215   C216    1.406   .     A
C215   O54     1.395   .     S
C216   H54     1.083   .     S
N54    C217    1.360   .     A
N54    C220    1.360   .     A
N54    Ni7     1.896   1_655 S
C217   N55     1.338   .     A
C217   C218    1.376   .     A
C218   C219    1.363   .     A
C218   C224    1.399   .     A
C219   C220    1.376   .     A
C219   C221    1.399   .     A
C220   N56     1.338   .     A
C221   C222    1.406   .     A
C221   H55     1.082   .     S
C222   C223    1.388   .     A
C222   O55     1.381   .     S
C223   C224    1.406   .     A
C223   O56     1.381   1_545 S
C224   H56     1.082   1_545 S
O49    Cu3     1.814   1_655 S
O50    Cu3     1.814   .     S
O51    Cu13    1.814   .     S
O52    Cu13    1.814   .     S
O53    Zn2     1.803   .     S
O54    Zn2     1.803   1_455 S
O55    Cu13    1.814   .     S
O56    C223    1.381   1_565 S
O56    Cu13    1.814   1_565 S
H56    C224    1.082   1_565 S
Ni7    N54     1.896   1_455 S
C225   C226    1.406   .     A
C225   C230    1.399   .     A
C225   H57     1.082   .     S
C226   C227    1.388   1_565 A
C226   O57     1.381   .     S
C227   C226    1.388   1_545 A
C227   C228    1.406   .     A
C227   O58     1.381   .     S
C228   C229    1.399   .     A
C228   H58     1.082   1_655 S
C229   C230    1.363   1_545 A
C229   C232    1.376   .     A
C230   C229    1.363   1_565 A
C230   C231    1.376   .     A
C231   N57     1.360   1_565 A
C231   N64     1.338   .     A
N57    C231    1.360   1_545 A
N57    C232    1.360   .     A
N57    Ni8     1.896   .     S
C232   N58     1.338   1_655 A
N58    C232    1.338   1_455 A
N58    C233    1.338   .     A
C233   N59     1.360   1_455 A
C233   C236    1.376   .     A
N59    C233    1.360   1_655 A
N59    C234    1.360   .     A
N59    Ni8     1.896   .     S
C234   C235    1.376   1_655 A
C234   N61     1.338   .     A
C235   C234    1.376   1_455 A
C235   C236    1.363   .     A
C235   C244    1.399   .     A
C236   C241    1.399   .     A
N60    C237    1.360   .     A
N60    C240    1.360   1_645 A
N60    Ni8     1.896   .     S
C237   N61     1.338   .     A
C237   C238    1.377   .     A
C238   C239    1.360   1_645 A
C238   C248    1.396   .     A
C239   C238    1.360   1_465 A
C239   C240    1.377   .     A
C239   C245    1.396   .     A
C240   N60     1.360   1_465 A
C240   N63     1.338   .     A
C241   C242    1.406   .     A
C241   H59     1.082   .     S
C242   C243    1.388   .     A
C242   O59     1.381   .     S
C243   C244    1.406   .     A
C243   O60     1.381   .     S
C244   H60     1.082   .     S
C245   C246    1.406   1_455 A
C245   H61     1.083   .     S
C246   C245    1.406   1_655 A
C246   C247    1.427   1_565 A
C246   O61     1.395   .     S
C247   C246    1.427   1_545 A
C247   C248    1.406   .     A
C247   O62     1.395   .     S
C248   H62     1.083   .     S
N62    C249    1.360   1_655 A
N62    C252    1.360   .     A
N62    Ni8     1.896   1_565 S
C249   N62     1.360   1_455 A
C249   N63     1.338   .     A
C249   C250    1.376   .     A
C250   C251    1.363   1_455 A
C250   C256    1.399   .     A
C251   C250    1.363   1_655 A
C251   C252    1.376   .     A
C251   C253    1.399   .     A
C252   N64     1.338   .     A
C253   C254    1.406   1_655 A
C253   H63     1.082   .     S
C254   C253    1.406   1_455 A
C254   C255    1.388   .     A
C254   O63     1.381   .     S
C255   C256    1.406   .     A
C255   O64     1.381   .     S
C256   H64     1.082   .     S
O57    Cu4     1.814   1_565 S
O58    Cu4     1.814   .     S
H58    C228    1.082   1_455 S
O59    Cu14    1.814   .     S
O60    Cu14    1.814   .     S
O61    Zn1     1.803   1_565 S
O62    Zn1     1.803   .     S
O63    Cu14    1.814   .     S
O64    Cu14    1.814   .     S
Ni8    N62     1.896   1_545 S
Zn1    O34     1.803   1_655 S
Zn1    O61     1.803   1_545 S
Zn2    O54     1.803   1_655 S
Zn2    O47     1.803   1_545 S
Cu1    O1      1.814   1_455 S
Cu1    O37     1.814   1_455 S
Cu2    O15     1.814   1_545 S
Cu2    O43     1.814   1_545 S
Cu3    O21     1.814   1_455 S
Cu3    O49     1.814   1_455 S
Cu4    O57     1.814   1_545 S
Cu4    O27     1.814   1_545 S
Cu9    O5      1.814   1_455 S
Cu9    O18     1.814   1_554 S
Cu9    O17     1.814   1_454 S
Cu10   O31     1.814   1_545 S
Cu10   O11     1.814   1_545 S
Cu13   O56     1.814   1_545 S
