data_cdn-PcMN_O-Zntet
_audit_creation_date              2021-11-06
_audit_creation_method            'Materials Studio'
_symmetry_space_group_name_H-M    'P1'
_symmetry_Int_Tables_number       1
_symmetry_cell_setting            triclinic
loop_
_symmetry_equiv_pos_as_xyz
  x,y,z
_cell_length_a                    22.7688
_cell_length_b                    22.7688
_cell_length_c                    181.5834
_cell_angle_alpha                 90.0302
_cell_angle_beta                  90.0310
_cell_angle_gamma                 89.9897
loop_
_atom_site_label
_atom_site_type_symbol
_atom_site_fract_x
_atom_site_fract_y
_atom_site_fract_z
_atom_site_U_iso_or_equiv
_atom_site_adp_type
_atom_site_occupancy
C1     C     0.94259   0.99980   0.03386   0.00000  Uiso   1.00
C2     C     0.97354   0.99977   0.02713   0.00000  Uiso   1.00
C3     C     0.03654   0.99977   0.02713   0.00000  Uiso   1.00
C4     C     0.06754   0.99980   0.03386   0.00000  Uiso   1.00
C5     C     0.03493   0.99982   0.04036   0.00000  Uiso   1.00
C6     C     0.97525   0.99982   0.04036   0.00000  Uiso   1.00
C7     C     0.95821   0.99987   0.04763   0.00000  Uiso   1.00
N1     N     0.00514   0.99990   0.05226   0.00000  Uiso   1.00
C8     C     0.05202   0.99987   0.04763   0.00000  Uiso   1.00
N2     N     0.10829   0.99989   0.04976   0.00000  Uiso   1.00
C9     C     0.12532  -0.00005   0.05682   0.00000  Uiso   1.00
N3     N     0.08840   0.00001   0.06270   0.00000  Uiso   1.00
C10    C     0.12537   0.00007   0.06858   0.00000  Uiso   1.00
C11    C     0.18337   0.00005   0.06644   0.00000  Uiso   1.00
C12    C     0.18334  -0.00002   0.05896   0.00000  Uiso   1.00
N4     N     0.00522   0.00011   0.07313   0.00000  Uiso   1.00
C13    C     0.05214   0.00019   0.07777   0.00000  Uiso   1.00
N5     N     0.10839   0.00017   0.07563   0.00000  Uiso   1.00
C14    C     0.03511   0.00032   0.08504   0.00000  Uiso   1.00
C15    C     0.97543   0.00032   0.08504   0.00000  Uiso   1.00
C16    C     0.95834   0.00019   0.07777   0.00000  Uiso   1.00
C17    C     0.23515   0.99995   0.05487   0.00000  Uiso   1.00
C18    C     0.28884  -0.00001   0.05875   0.00000  Uiso   1.00
C19    C     0.28887   0.00007   0.06665   0.00000  Uiso   1.00
C20    C     0.23521   0.00010   0.07053   0.00000  Uiso   1.00
C21    C     0.94283   0.00050   0.09154   0.00000  Uiso   1.00
C22    C     0.97383   0.00070   0.09827   0.00000  Uiso   1.00
C23    C     0.03684   0.00070   0.09827   0.00000  Uiso   1.00
C24    C     0.06778   0.00050   0.09154   0.00000  Uiso   1.00
N6     N     0.92195   0.00001   0.06270   0.00000  Uiso   1.00
C25    C     0.88504   0.00007   0.06858   0.00000  Uiso   1.00
N7     N     0.90207   0.00017   0.07563   0.00000  Uiso   1.00
C26    C     0.82702   0.00005   0.06644   0.00000  Uiso   1.00
C27    C     0.82698  -0.00002   0.05896   0.00000  Uiso   1.00
C28    C     0.88499  -0.00005   0.05682   0.00000  Uiso   1.00
C29    C     0.77514   0.99994   0.05487   0.00000  Uiso   1.00
C30    C     0.72148  -0.00001   0.05875   0.00000  Uiso   1.00
C31    C     0.72152   0.00007   0.06665   0.00000  Uiso   1.00
C32    C     0.77521   0.00010   0.07053   0.00000  Uiso   1.00
N8     N     0.90196   0.99989   0.04976   0.00000  Uiso   1.00
H1     H     0.89502   0.99980   0.03402   0.00000  Uiso   1.00
H2     H     0.11511   0.99980   0.03402   0.00000  Uiso   1.00
H3     H     0.23384   0.99989   0.04890   0.00000  Uiso   1.00
H4     H     0.23395   0.00016   0.07650   0.00000  Uiso   1.00
H5     H     0.89525   0.00051   0.09138   0.00000  Uiso   1.00
H6     H     0.11535   0.00051   0.09138   0.00000  Uiso   1.00
H7     H     0.77639   0.99989   0.04890   0.00000  Uiso   1.00
H8     H     0.77653   0.00016   0.07650   0.00000  Uiso   1.00
C33    C     0.66775   0.99996   0.05494   0.00000  Uiso   1.00
C34    C     0.61528   0.00001   0.05892   0.00000  Uiso   1.00
C35    C     0.61531   0.00008   0.06649   0.00000  Uiso   1.00
C36    C     0.66783   0.00011   0.07046   0.00000  Uiso   1.00
C37    C     0.94313   0.99975   0.02039   0.00000  Uiso   1.00
C38    C     0.97482   0.99972   0.01381   0.00000  Uiso   1.00
C39    C     0.03518   0.99972   0.01381   0.00000  Uiso   1.00
C40    C     0.06691   0.99975   0.02039   0.00000  Uiso   1.00
C41    C     0.34253   0.99996   0.05494   0.00000  Uiso   1.00
C42    C     0.39505   0.00000   0.05892   0.00000  Uiso   1.00
C43    C     0.39508   0.00008   0.06649   0.00000  Uiso   1.00
C44    C     0.34259   0.00011   0.07046   0.00000  Uiso   1.00
C45    C     0.94347   0.00093   0.10500   0.00000  Uiso   1.00
C46    C     0.97522   0.00118   0.11159   0.00000  Uiso   1.00
C47    C     0.03558   0.00118   0.11159   0.00000  Uiso   1.00
C48    C     0.06726   0.00093   0.10500   0.00000  Uiso   1.00
H9     H     0.66655   0.99990   0.04897   0.00000  Uiso   1.00
O1     O     0.56079   0.99998   0.05557   0.00000  Uiso   1.00
O2     O     0.56086   0.00011   0.06984   0.00000  Uiso   1.00
H10    H     0.66669   0.00017   0.07643   0.00000  Uiso   1.00
H11    H     0.89556   0.99975   0.02024   0.00000  Uiso   1.00
O3     O     0.94808   0.99970   0.00698   0.00000  Uiso   1.00
O4     O     0.06187   0.99970   0.00698   0.00000  Uiso   1.00
H12    H     0.11448   0.99975   0.02025   0.00000  Uiso   1.00
H13    H     0.34368   0.99990   0.04898   0.00000  Uiso   1.00
O5     O     0.44950   0.99998   0.05557   0.00000  Uiso   1.00
O6     O     0.44956   0.00011   0.06984   0.00000  Uiso   1.00
H14    H     0.34379   0.00017   0.07643   0.00000  Uiso   1.00
H15    H     0.89590   0.00094   0.10515   0.00000  Uiso   1.00
O7     O     0.94854   0.00146   0.11842   0.00000  Uiso   1.00
O8     O     0.06233   0.00146   0.11841   0.00000  Uiso   1.00
H16    H     0.11483   0.00094   0.10515   0.00000  Uiso   1.00
Ni1    Ni    0.00518  -0.00000   0.06270   0.00000  Uiso   1.00
C49    C     0.99995   0.77506   0.55486   0.00000  Uiso   1.00
C50    C    -0.00000   0.72140   0.55875   0.00000  Uiso   1.00
C51    C     0.00007   0.72144   0.56665   0.00000  Uiso   1.00
C52    C     0.00010   0.77513   0.57053   0.00000  Uiso   1.00
C53    C     0.00005   0.82694   0.56644   0.00000  Uiso   1.00
C54    C    -0.00002   0.82690   0.55896   0.00000  Uiso   1.00
C55    C    -0.00004   0.88490   0.55682   0.00000  Uiso   1.00
N9     N     0.00001   0.92187   0.56270   0.00000  Uiso   1.00
C56    C     0.00007   0.88496   0.56858   0.00000  Uiso   1.00
N10    N     0.00016   0.90199   0.57563   0.00000  Uiso   1.00
C57    C     0.00018   0.95826   0.57777   0.00000  Uiso   1.00
N11    N     0.00011   0.00514   0.57313   0.00000  Uiso   1.00
C58    C     0.00018   0.05206   0.57777   0.00000  Uiso   1.00
C59    C     0.00031   0.03503   0.58504   0.00000  Uiso   1.00
C60    C     0.00031   0.97535   0.58504   0.00000  Uiso   1.00
N12    N     0.00001   0.08832   0.56270   0.00000  Uiso   1.00
C61    C     0.00007   0.12529   0.56858   0.00000  Uiso   1.00
N13    N     0.00016   0.10831   0.57563   0.00000  Uiso   1.00
C62    C     0.00005   0.18329   0.56644   0.00000  Uiso   1.00
C63    C    -0.00002   0.18326   0.55896   0.00000  Uiso   1.00
C64    C    -0.00004   0.12524   0.55682   0.00000  Uiso   1.00
C65    C     0.00048   0.94275   0.59154   0.00000  Uiso   1.00
C66    C     0.00067   0.97375   0.59827   0.00000  Uiso   1.00
C67    C     0.00067   0.03675   0.59827   0.00000  Uiso   1.00
C68    C     0.00048   0.06770   0.59154   0.00000  Uiso   1.00
C69    C     0.99995   0.23507   0.55486   0.00000  Uiso   1.00
C70    C    -0.00000   0.28876   0.55875   0.00000  Uiso   1.00
C71    C     0.00007   0.28879   0.56665   0.00000  Uiso   1.00
C72    C     0.00010   0.23513   0.57053   0.00000  Uiso   1.00
N14    N     0.99991   0.00505   0.55226   0.00000  Uiso   1.00
C73    C     0.99988   0.05194   0.54763   0.00000  Uiso   1.00
N15    N     0.99990   0.10821   0.54976   0.00000  Uiso   1.00
C74    C     0.99984   0.03485   0.54036   0.00000  Uiso   1.00
C75    C     0.99984   0.97517   0.54036   0.00000  Uiso   1.00
C76    C     0.99988   0.95813   0.54763   0.00000  Uiso   1.00
C77    C     0.99981   0.94251   0.53386   0.00000  Uiso   1.00
C78    C     0.99979   0.97346   0.52713   0.00000  Uiso   1.00
C79    C     0.99979   0.03647   0.52713   0.00000  Uiso   1.00
C80    C     0.99981   0.06746   0.53386   0.00000  Uiso   1.00
N16    N     0.99990   0.90188   0.54976   0.00000  Uiso   1.00
H17    H     0.99990   0.77631   0.54890   0.00000  Uiso   1.00
H18    H     0.00016   0.77644   0.57650   0.00000  Uiso   1.00
H19    H     0.00049   0.89517   0.59138   0.00000  Uiso   1.00
H20    H     0.00049   0.11527   0.59138   0.00000  Uiso   1.00
H21    H     0.99990   0.23376   0.54890   0.00000  Uiso   1.00
H22    H     0.00016   0.23387   0.57650   0.00000  Uiso   1.00
H23    H     0.99982   0.89494   0.53402   0.00000  Uiso   1.00
H24    H     0.99982   0.11503   0.53402   0.00000  Uiso   1.00
C81    C     0.99977   0.94305   0.52039   0.00000  Uiso   1.00
C82    C     0.99975   0.97474   0.51381   0.00000  Uiso   1.00
C83    C     0.99975   0.03510   0.51381   0.00000  Uiso   1.00
C84    C     0.99977   0.06683   0.52039   0.00000  Uiso   1.00
C85    C     0.99997   0.66767   0.55494   0.00000  Uiso   1.00
C86    C     0.00001   0.61519   0.55892   0.00000  Uiso   1.00
C87    C     0.00008   0.61523   0.56648   0.00000  Uiso   1.00
C88    C     0.00011   0.66775   0.57046   0.00000  Uiso   1.00
C89    C     0.00090   0.94339   0.60500   0.00000  Uiso   1.00
C90    C     0.00114   0.97514   0.61159   0.00000  Uiso   1.00
C91    C     0.00114   0.03550   0.61158   0.00000  Uiso   1.00
C92    C     0.00090   0.06718   0.60500   0.00000  Uiso   1.00
C93    C     0.99997   0.34245   0.55494   0.00000  Uiso   1.00
C94    C     0.00001   0.39497   0.55892   0.00000  Uiso   1.00
C95    C     0.00008   0.39500   0.56648   0.00000  Uiso   1.00
C96    C     0.00011   0.34251   0.57046   0.00000  Uiso   1.00
H25    H     0.99977   0.89548   0.52024   0.00000  Uiso   1.00
O9     O     0.99972   0.94801   0.50698   0.00000  Uiso   1.00
O10    O     0.99972   0.06179   0.50698   0.00000  Uiso   1.00
H26    H     0.99977   0.11440   0.52025   0.00000  Uiso   1.00
H27    H     0.99991   0.66647   0.54897   0.00000  Uiso   1.00
O11    O     0.99998   0.56071   0.55557   0.00000  Uiso   1.00
O12    O     0.00011   0.56078   0.56983   0.00000  Uiso   1.00
H28    H     0.00016   0.66660   0.57642   0.00000  Uiso   1.00
H29    H     0.00091   0.89582   0.60515   0.00000  Uiso   1.00
O13    O     0.00141   0.94846   0.61842   0.00000  Uiso   1.00
O14    O     0.00141   0.06225   0.61841   0.00000  Uiso   1.00
H30    H     0.00091   0.11475   0.60515   0.00000  Uiso   1.00
H31    H     0.99991   0.34360   0.54897   0.00000  Uiso   1.00
O15    O     0.99998   0.44942   0.55557   0.00000  Uiso   1.00
O16    O     0.00011   0.44948   0.56983   0.00000  Uiso   1.00
H32    H     0.00017   0.34371   0.57643   0.00000  Uiso   1.00
Ni2    Ni   -0.00000   0.00509   0.56270   0.00000  Uiso   1.00
C97    C     0.94214   0.00098   0.90846   0.00000  Uiso   1.00
C98    C     0.97309   0.00132   0.90173   0.00000  Uiso   1.00
C99    C     0.03610   0.00132   0.90173   0.00000  Uiso   1.00
C100   C     0.06709   0.00098   0.90846   0.00000  Uiso   1.00
C101   C     0.03448   0.00068   0.91496   0.00000  Uiso   1.00
C102   C     0.97480   0.00068   0.91496   0.00000  Uiso   1.00
C103   C     0.95777   0.00043   0.92224   0.00000  Uiso   1.00
N17    N     0.00469   0.00029   0.92687   0.00000  Uiso   1.00
C104   C     0.05157   0.00043   0.92224   0.00000  Uiso   1.00
N18    N     0.10784   0.00037   0.92437   0.00000  Uiso   1.00
C105   C     0.12487   0.00018   0.93142   0.00000  Uiso   1.00
N19    N     0.08796   0.00007   0.93730   0.00000  Uiso   1.00
C106   C     0.12492  -0.00006   0.94319   0.00000  Uiso   1.00
C107   C     0.18292  -0.00002   0.94105   0.00000  Uiso   1.00
C108   C     0.18289   0.00013   0.93356   0.00000  Uiso   1.00
N20    N     0.00477   0.99987   0.94774   0.00000  Uiso   1.00
C109   C     0.05169   0.99982   0.95237   0.00000  Uiso   1.00
N21    N     0.10794   0.99984   0.95024   0.00000  Uiso   1.00
C110   C     0.03466   0.99974   0.95965   0.00000  Uiso   1.00
C111   C     0.97498   0.99974   0.95965   0.00000  Uiso   1.00
C112   C     0.95789   0.99982   0.95237   0.00000  Uiso   1.00
C113   C     0.23469   0.00021   0.92947   0.00000  Uiso   1.00
C114   C     0.28838   0.00012   0.93335   0.00000  Uiso   1.00
C115   C     0.28842  -0.00003   0.94125   0.00000  Uiso   1.00
C116   C     0.23477   0.99990   0.94514   0.00000  Uiso   1.00
C117   C     0.94237   0.99970   0.96614   0.00000  Uiso   1.00
C118   C     0.97336   0.99968   0.97287   0.00000  Uiso   1.00
C119   C     0.03637   0.99968   0.97288   0.00000  Uiso   1.00
C120   C     0.06731   0.99970   0.96615   0.00000  Uiso   1.00
N22    N     0.92150   0.00007   0.93730   0.00000  Uiso   1.00
C121   C     0.88459  -0.00005   0.94318   0.00000  Uiso   1.00
N23    N     0.90162   0.99984   0.95024   0.00000  Uiso   1.00
C122   C     0.82657  -0.00002   0.94104   0.00000  Uiso   1.00
C123   C     0.82654   0.00013   0.93356   0.00000  Uiso   1.00
C124   C     0.88454   0.00018   0.93142   0.00000  Uiso   1.00
C125   C     0.77470   0.00021   0.92947   0.00000  Uiso   1.00
C126   C     0.72104   0.00013   0.93335   0.00000  Uiso   1.00
C127   C     0.72107  -0.00003   0.94125   0.00000  Uiso   1.00
C128   C     0.77476   0.99990   0.94514   0.00000  Uiso   1.00
N24    N     0.90152   0.00038   0.92437   0.00000  Uiso   1.00
H33    H     0.89457   0.00100   0.90862   0.00000  Uiso   1.00
H34    H     0.11466   0.00099   0.90863   0.00000  Uiso   1.00
H35    H     0.23338   0.00032   0.92350   0.00000  Uiso   1.00
H36    H     0.23352   0.99978   0.95110   0.00000  Uiso   1.00
H37    H     0.89479   0.99972   0.96598   0.00000  Uiso   1.00
H38    H     0.11489   0.99971   0.96598   0.00000  Uiso   1.00
H39    H     0.77596   0.00033   0.92350   0.00000  Uiso   1.00
H40    H     0.77606   0.99978   0.95110   0.00000  Uiso   1.00
C129   C     0.66731   0.00019   0.92954   0.00000  Uiso   1.00
C130   C     0.61483   0.00011   0.93352   0.00000  Uiso   1.00
C131   C     0.61486  -0.00003   0.94108   0.00000  Uiso   1.00
C132   C     0.66737   0.99990   0.94506   0.00000  Uiso   1.00
C133   C     0.94268   0.00170   0.89500   0.00000  Uiso   1.00
C134   C     0.97437   0.00210   0.88842   0.00000  Uiso   1.00
C135   C     0.03473   0.00209   0.88842   0.00000  Uiso   1.00
C136   C     0.06646   0.00170   0.89500   0.00000  Uiso   1.00
C137   C     0.34208   0.00019   0.92954   0.00000  Uiso   1.00
C138   C     0.39459   0.00011   0.93352   0.00000  Uiso   1.00
C139   C     0.39463  -0.00003   0.94109   0.00000  Uiso   1.00
C140   C     0.34215   0.99989   0.94506   0.00000  Uiso   1.00
C141   C     0.94300   0.99967   0.97961   0.00000  Uiso   1.00
C142   C     0.97473   0.99966   0.98619   0.00000  Uiso   1.00
C143   C     0.03509   0.99966   0.98619   0.00000  Uiso   1.00
C144   C     0.06678   0.99967   0.97961   0.00000  Uiso   1.00
H41    H     0.66612   0.00031   0.92358   0.00000  Uiso   1.00
O17    O     0.56035   0.00017   0.93017   0.00000  Uiso   1.00
O18    O     0.56041   0.99990   0.94443   0.00000  Uiso   1.00
H42    H     0.66622   0.99978   0.95103   0.00000  Uiso   1.00
H43    H     0.89511   0.00172   0.89485   0.00000  Uiso   1.00
O19    O     0.94763   0.00254   0.88159   0.00000  Uiso   1.00
O20    O     0.06142   0.00253   0.88159   0.00000  Uiso   1.00
H44    H     0.11403   0.00171   0.89485   0.00000  Uiso   1.00
H45    H     0.34322   0.00031   0.92358   0.00000  Uiso   1.00
O21    O     0.44905   0.00017   0.93017   0.00000  Uiso   1.00
O22    O     0.44912   0.99990   0.94443   0.00000  Uiso   1.00
H46    H     0.34336   0.99978   0.95103   0.00000  Uiso   1.00
H47    H     0.89542   0.99967   0.97976   0.00000  Uiso   1.00
O23    O     0.94804   0.99966   0.99302   0.00000  Uiso   1.00
O24    O     0.06182   0.99966   0.99302   0.00000  Uiso   1.00
H48    H     0.11435   0.99967   0.97976   0.00000  Uiso   1.00
Ni3    Ni    0.00473   0.00007   0.93730   0.00000  Uiso   1.00
C145   C     0.00018   0.77463   0.42947   0.00000  Uiso   1.00
C146   C     0.00011   0.72097   0.43335   0.00000  Uiso   1.00
C147   C    -0.00004   0.72100   0.44125   0.00000  Uiso   1.00
C148   C     0.99989   0.77468   0.44514   0.00000  Uiso   1.00
C149   C    -0.00004   0.82649   0.44104   0.00000  Uiso   1.00
C150   C     0.00010   0.82647   0.43356   0.00000  Uiso   1.00
C151   C     0.00015   0.88447   0.43142   0.00000  Uiso   1.00
N25    N     0.00004   0.92143   0.43730   0.00000  Uiso   1.00
C152   C     0.99993   0.88451   0.44318   0.00000  Uiso   1.00
N26    N     0.99983   0.90155   0.45024   0.00000  Uiso   1.00
C153   C     0.99980   0.95781   0.45237   0.00000  Uiso   1.00
N27    N     0.99985   0.00470   0.44774   0.00000  Uiso   1.00
C154   C     0.99979   0.05162   0.45237   0.00000  Uiso   1.00
C155   C     0.99972   0.03458   0.45965   0.00000  Uiso   1.00
C156   C     0.99972   0.97490   0.45965   0.00000  Uiso   1.00
N28    N     0.00004   0.08788   0.43730   0.00000  Uiso   1.00
C157   C     0.99993   0.12485   0.44319   0.00000  Uiso   1.00
N29    N     0.99983   0.10787   0.45024   0.00000  Uiso   1.00
C158   C    -0.00004   0.18285   0.44105   0.00000  Uiso   1.00
C159   C     0.00010   0.18282   0.43356   0.00000  Uiso   1.00
C160   C     0.00015   0.12480   0.43142   0.00000  Uiso   1.00
C161   C     0.99970   0.94229   0.46614   0.00000  Uiso   1.00
C162   C     0.99968   0.97329   0.47287   0.00000  Uiso   1.00
C163   C     0.99968   0.03629   0.47288   0.00000  Uiso   1.00
C164   C     0.99970   0.06724   0.46615   0.00000  Uiso   1.00
C165   C     0.00018   0.23462   0.42947   0.00000  Uiso   1.00
C166   C     0.00011   0.28831   0.43335   0.00000  Uiso   1.00
C167   C    -0.00004   0.28835   0.44125   0.00000  Uiso   1.00
C168   C     0.99989   0.23470   0.44514   0.00000  Uiso   1.00
N30    N     0.00023   0.00462   0.42687   0.00000  Uiso   1.00
C169   C     0.00037   0.05150   0.42224   0.00000  Uiso   1.00
N31    N     0.00032   0.10776   0.42437   0.00000  Uiso   1.00
C170   C     0.00060   0.03441   0.41496   0.00000  Uiso   1.00
C171   C     0.00060   0.97473   0.41496   0.00000  Uiso   1.00
C172   C     0.00037   0.95770   0.42224   0.00000  Uiso   1.00
C173   C     0.00090   0.94207   0.40846   0.00000  Uiso   1.00
C174   C     0.00124   0.97302   0.40173   0.00000  Uiso   1.00
C175   C     0.00124   0.03602   0.40173   0.00000  Uiso   1.00
C176   C     0.00090   0.06702   0.40846   0.00000  Uiso   1.00
N32    N     0.00032   0.90145   0.42437   0.00000  Uiso   1.00
H49    H     0.00029   0.77589   0.42350   0.00000  Uiso   1.00
H50    H     0.99979   0.77599   0.45110   0.00000  Uiso   1.00
H51    H     0.99971   0.89472   0.46598   0.00000  Uiso   1.00
H52    H     0.99971   0.11481   0.46598   0.00000  Uiso   1.00
H53    H     0.00029   0.23331   0.42351   0.00000  Uiso   1.00
H54    H     0.99978   0.23344   0.45110   0.00000  Uiso   1.00
H55    H     0.00092   0.89450   0.40862   0.00000  Uiso   1.00
H56    H     0.00092   0.11459   0.40863   0.00000  Uiso   1.00
C177   C     0.00162   0.94260   0.39500   0.00000  Uiso   1.00
C178   C     0.00203   0.97429   0.38842   0.00000  Uiso   1.00
C179   C     0.00203   0.03465   0.38842   0.00000  Uiso   1.00
C180   C     0.00162   0.06639   0.39500   0.00000  Uiso   1.00
C181   C     0.00017   0.66724   0.42954   0.00000  Uiso   1.00
C182   C     0.00010   0.61476   0.43352   0.00000  Uiso   1.00
C183   C    -0.00004   0.61479   0.44109   0.00000  Uiso   1.00
C184   C     0.99989   0.66730   0.44506   0.00000  Uiso   1.00
C185   C     0.99968   0.94292   0.47961   0.00000  Uiso   1.00
C186   C     0.99968   0.97465   0.48619   0.00000  Uiso   1.00
C187   C     0.99968   0.03501   0.48619   0.00000  Uiso   1.00
C188   C     0.99968   0.06670   0.47961   0.00000  Uiso   1.00
C189   C     0.00017   0.34200   0.42954   0.00000  Uiso   1.00
C190   C     0.00010   0.39452   0.43352   0.00000  Uiso   1.00
C191   C    -0.00004   0.39456   0.44109   0.00000  Uiso   1.00
C192   C     0.99989   0.34208   0.44506   0.00000  Uiso   1.00
H57    H     0.00164   0.89503   0.39485   0.00000  Uiso   1.00
O25    O     0.00247   0.94756   0.38159   0.00000  Uiso   1.00
O26    O     0.00247   0.06134   0.38159   0.00000  Uiso   1.00
H58    H     0.00164   0.11396   0.39485   0.00000  Uiso   1.00
H59    H     0.00028   0.66605   0.42358   0.00000  Uiso   1.00
O27    O     0.00015   0.56028   0.43017   0.00000  Uiso   1.00
O28    O     0.99990   0.56033   0.44443   0.00000  Uiso   1.00
H60    H     0.99979   0.66615   0.45103   0.00000  Uiso   1.00
H61    H     0.99968   0.89535   0.47976   0.00000  Uiso   1.00
O29    O     0.99969   0.94796   0.49302   0.00000  Uiso   1.00
O30    O     0.99969   0.06175   0.49302   0.00000  Uiso   1.00
H62    H     0.99968   0.11427   0.47976   0.00000  Uiso   1.00
H63    H     0.00028   0.34315   0.42358   0.00000  Uiso   1.00
O31    O     0.00015   0.44898   0.43017   0.00000  Uiso   1.00
O32    O     0.99990   0.44904   0.44444   0.00000  Uiso   1.00
H64    H     0.99979   0.34328   0.45103   0.00000  Uiso   1.00
Ni4    Ni    0.00003   0.00466   0.43730   0.00000  Uiso   1.00
C193   C     0.94319   0.00341   0.15925   0.00000  Uiso   1.00
C194   C     0.97412   0.00314   0.15252   0.00000  Uiso   1.00
C195   C     0.03713   0.00314   0.15252   0.00000  Uiso   1.00
C196   C     0.06814   0.00341   0.15925   0.00000  Uiso   1.00
C197   C     0.03555   0.00366   0.16574   0.00000  Uiso   1.00
C198   C     0.97586   0.00366   0.16575   0.00000  Uiso   1.00
C199   C     0.95885   0.00387   0.17302   0.00000  Uiso   1.00
N33    N     0.00577   0.00399   0.17765   0.00000  Uiso   1.00
C200   C     0.05265   0.00387   0.17302   0.00000  Uiso   1.00
N34    N     0.10892   0.00392   0.17515   0.00000  Uiso   1.00
C201   C     0.12597   0.00409   0.18220   0.00000  Uiso   1.00
N35    N     0.08906   0.00418   0.18808   0.00000  Uiso   1.00
C202   C     0.12603   0.00428   0.19396   0.00000  Uiso   1.00
C203   C     0.18402   0.00426   0.19182   0.00000  Uiso   1.00
C204   C     0.18399   0.00413   0.18434   0.00000  Uiso   1.00
N36    N     0.00589   0.00433   0.19852   0.00000  Uiso   1.00
C205   C     0.05281   0.00437   0.20315   0.00000  Uiso   1.00
N37    N     0.10906   0.00435   0.20102   0.00000  Uiso   1.00
C206   C     0.03579   0.00441   0.21043   0.00000  Uiso   1.00
C207   C     0.97613   0.00441   0.21043   0.00000  Uiso   1.00
C208   C     0.95901   0.00437   0.20316   0.00000  Uiso   1.00
C209   C     0.23580   0.00406   0.18025   0.00000  Uiso   1.00
C210   C     0.28949   0.00413   0.18413   0.00000  Uiso   1.00
C211   C     0.28952   0.00426   0.19203   0.00000  Uiso   1.00
C212   C     0.23587   0.00433   0.19592   0.00000  Uiso   1.00
C213   C     0.94359   0.00440   0.21693   0.00000  Uiso   1.00
C214   C     0.97463   0.00437   0.22366   0.00000  Uiso   1.00
C215   C     0.03751   0.00436   0.22366   0.00000  Uiso   1.00
C216   C     0.06844   0.00439   0.21692   0.00000  Uiso   1.00
N38    N     0.92260   0.00418   0.18809   0.00000  Uiso   1.00
C217   C     0.88569   0.00429   0.19397   0.00000  Uiso   1.00
N39    N     0.90274   0.00436   0.20102   0.00000  Uiso   1.00
C218   C     0.82767   0.00426   0.19183   0.00000  Uiso   1.00
C219   C     0.82764   0.00414   0.18435   0.00000  Uiso   1.00
C220   C     0.88563   0.00409   0.18221   0.00000  Uiso   1.00
C221   C     0.77579   0.00406   0.18026   0.00000  Uiso   1.00
C222   C     0.72214   0.00413   0.18414   0.00000  Uiso   1.00
C223   C     0.72217   0.00426   0.19204   0.00000  Uiso   1.00
C224   C     0.77586   0.00433   0.19592   0.00000  Uiso   1.00
N40    N     0.90260   0.00392   0.17515   0.00000  Uiso   1.00
H65    H     0.89562   0.00340   0.15941   0.00000  Uiso   1.00
H66    H     0.11571   0.00340   0.15941   0.00000  Uiso   1.00
H67    H     0.23449   0.00396   0.17428   0.00000  Uiso   1.00
H68    H     0.23461   0.00442   0.20188   0.00000  Uiso   1.00
H69    H     0.89602   0.00439   0.21677   0.00000  Uiso   1.00
H70    H     0.11601   0.00438   0.21676   0.00000  Uiso   1.00
H71    H     0.77706   0.00396   0.17429   0.00000  Uiso   1.00
H72    H     0.77716   0.00443   0.20189   0.00000  Uiso   1.00
C225   C     0.66842   0.00406   0.18033   0.00000  Uiso   1.00
C226   C     0.61593   0.00412   0.18430   0.00000  Uiso   1.00
C227   C     0.61596   0.00425   0.19187   0.00000  Uiso   1.00
C228   C     0.66847   0.00432   0.19585   0.00000  Uiso   1.00
C229   C     0.94370   0.00283   0.14578   0.00000  Uiso   1.00
C230   C     0.97537   0.00251   0.13920   0.00000  Uiso   1.00
C231   C     0.03573   0.00251   0.13920   0.00000  Uiso   1.00
C232   C     0.06748   0.00283   0.14578   0.00000  Uiso   1.00
C233   C     0.34319   0.00406   0.18032   0.00000  Uiso   1.00
C234   C     0.39570   0.00412   0.18430   0.00000  Uiso   1.00
C235   C     0.39573   0.00425   0.19187   0.00000  Uiso   1.00
C236   C     0.34325   0.00432   0.19584   0.00000  Uiso   1.00
C237   C     0.94422   0.00432   0.23038   0.00000  Uiso   1.00
C238   C     0.97518   0.00427   0.23702   0.00000  Uiso   1.00
C239   C     0.03721   0.00426   0.23702   0.00000  Uiso   1.00
C240   C     0.06805   0.00431   0.23037   0.00000  Uiso   1.00
H73    H     0.66722   0.00396   0.17436   0.00000  Uiso   1.00
O33    O     0.56145   0.00406   0.18095   0.00000  Uiso   1.00
O34    O     0.56150   0.00430   0.19522   0.00000  Uiso   1.00
H74    H     0.66732   0.00442   0.20181   0.00000  Uiso   1.00
H75    H     0.89612   0.00281   0.14564   0.00000  Uiso   1.00
O35    O     0.94862   0.00217   0.13237   0.00000  Uiso   1.00
O36    O     0.06240   0.00217   0.13237   0.00000  Uiso   1.00
H76    H     0.11505   0.00281   0.14563   0.00000  Uiso   1.00
H77    H     0.34434   0.00396   0.17436   0.00000  Uiso   1.00
O37    O     0.45016   0.00406   0.18095   0.00000  Uiso   1.00
O38    O     0.45021   0.00430   0.19522   0.00000  Uiso   1.00
H78    H     0.34444   0.00442   0.20181   0.00000  Uiso   1.00
H79    H     0.89663   0.00432   0.23047   0.00000  Uiso   1.00
O39    O     0.94513   0.00422   0.24372   0.00000  Uiso   1.00
O40    O     0.06738   0.00421   0.24371   0.00000  Uiso   1.00
H80    H     0.11564   0.00431   0.23046   0.00000  Uiso   1.00
Ni5    Ni    0.00583   0.00417   0.18809   0.00000  Uiso   1.00
C241   C     0.00422   0.23580   0.69591   0.00000  Uiso   1.00
C242   C     0.00415   0.28945   0.69203   0.00000  Uiso   1.00
C243   C     0.00402   0.28942   0.68413   0.00000  Uiso   1.00
C244   C     0.00395   0.23573   0.68025   0.00000  Uiso   1.00
C245   C     0.00402   0.18392   0.68434   0.00000  Uiso   1.00
C246   C     0.00415   0.18395   0.69182   0.00000  Uiso   1.00
C247   C     0.00418   0.12596   0.69396   0.00000  Uiso   1.00
N41    N     0.00407   0.08899   0.68808   0.00000  Uiso   1.00
C248   C     0.00397   0.12590   0.68220   0.00000  Uiso   1.00
N42    N     0.00381   0.10885   0.67515   0.00000  Uiso   1.00
C249   C     0.00375   0.05258   0.67302   0.00000  Uiso   1.00
N43    N     0.00387   0.00570   0.67765   0.00000  Uiso   1.00
C250   C     0.00375   0.95878   0.67302   0.00000  Uiso   1.00
C251   C     0.00355   0.97579   0.66574   0.00000  Uiso   1.00
C252   C     0.00355   0.03548   0.66574   0.00000  Uiso   1.00
N44    N     0.00408   0.92253   0.68809   0.00000  Uiso   1.00
C253   C     0.00398   0.88556   0.68221   0.00000  Uiso   1.00
N45    N     0.00381   0.90253   0.67515   0.00000  Uiso   1.00
C254   C     0.00403   0.82757   0.68435   0.00000  Uiso   1.00
C255   C     0.00415   0.82760   0.69183   0.00000  Uiso   1.00
C256   C     0.00418   0.88562   0.69397   0.00000  Uiso   1.00
C257   C     0.00331   0.06807   0.65924   0.00000  Uiso   1.00
C258   C     0.00304   0.03706   0.65251   0.00000  Uiso   1.00
C259   C     0.00304   0.97405   0.65252   0.00000  Uiso   1.00
C260   C     0.00331   0.94312   0.65925   0.00000  Uiso   1.00
C261   C     0.00422   0.77579   0.69592   0.00000  Uiso   1.00
C262   C     0.00415   0.72210   0.69204   0.00000  Uiso   1.00
C263   C     0.00402   0.72207   0.68414   0.00000  Uiso   1.00
C264   C     0.00395   0.77573   0.68025   0.00000  Uiso   1.00
N46    N     0.00423   0.00581   0.69852   0.00000  Uiso   1.00
C265   C     0.00427   0.95894   0.70315   0.00000  Uiso   1.00
N47    N     0.00426   0.90267   0.70102   0.00000  Uiso   1.00
C266   C     0.00432   0.97606   0.71043   0.00000  Uiso   1.00
C267   C     0.00432   0.03572   0.71042   0.00000  Uiso   1.00
C268   C     0.00427   0.05274   0.70315   0.00000  Uiso   1.00
C269   C     0.00432   0.06837   0.71692   0.00000  Uiso   1.00
C270   C     0.00431   0.03744   0.72366   0.00000  Uiso   1.00
C271   C     0.00431   0.97456   0.72366   0.00000  Uiso   1.00
C272   C     0.00432   0.94352   0.71693   0.00000  Uiso   1.00
N48    N     0.00425   0.10899   0.70102   0.00000  Uiso   1.00
H81    H     0.00432   0.23454   0.70188   0.00000  Uiso   1.00
H82    H     0.00385   0.23442   0.67428   0.00000  Uiso   1.00
H83    H     0.00330   0.11564   0.65940   0.00000  Uiso   1.00
H84    H     0.00330   0.89555   0.65941   0.00000  Uiso   1.00
H85    H     0.00432   0.77709   0.70189   0.00000  Uiso   1.00
H86    H     0.00385   0.77699   0.67429   0.00000  Uiso   1.00
H87    H     0.00431   0.11594   0.71676   0.00000  Uiso   1.00
H88    H     0.00432   0.89594   0.71677   0.00000  Uiso   1.00
C273   C     0.00428   0.06798   0.73037   0.00000  Uiso   1.00
C274   C     0.00425   0.03713   0.73702   0.00000  Uiso   1.00
C275   C     0.00426   0.97511   0.73702   0.00000  Uiso   1.00
C276   C     0.00429   0.94414   0.73038   0.00000  Uiso   1.00
C277   C     0.00421   0.34317   0.69584   0.00000  Uiso   1.00
C278   C     0.00414   0.39566   0.69187   0.00000  Uiso   1.00
C279   C     0.00401   0.39563   0.68430   0.00000  Uiso   1.00
C280   C     0.00395   0.34311   0.68032   0.00000  Uiso   1.00
C281   C     0.00274   0.06741   0.64578   0.00000  Uiso   1.00
C282   C     0.00244   0.03566   0.63920   0.00000  Uiso   1.00
C283   C     0.00244   0.97529   0.63920   0.00000  Uiso   1.00
C284   C     0.00274   0.94362   0.64578   0.00000  Uiso   1.00
C285   C     0.00422   0.66840   0.69585   0.00000  Uiso   1.00
C286   C     0.00414   0.61589   0.69187   0.00000  Uiso   1.00
C287   C     0.00401   0.61586   0.68430   0.00000  Uiso   1.00
C288   C     0.00395   0.66835   0.68033   0.00000  Uiso   1.00
H89    H     0.00428   0.11557   0.73046   0.00000  Uiso   1.00
O41    O     0.00422   0.06731   0.74371   0.00000  Uiso   1.00
O42    O     0.00423   0.94506   0.74372   0.00000  Uiso   1.00
H90    H     0.00429   0.89655   0.73047   0.00000  Uiso   1.00
H91    H     0.00431   0.34437   0.70181   0.00000  Uiso   1.00
O43    O     0.00419   0.45014   0.69522   0.00000  Uiso   1.00
O44    O     0.00395   0.45009   0.68095   0.00000  Uiso   1.00
H92    H     0.00384   0.34427   0.67436   0.00000  Uiso   1.00
H93    H     0.00273   0.11498   0.64563   0.00000  Uiso   1.00
O45    O     0.00210   0.06233   0.63237   0.00000  Uiso   1.00
O46    O     0.00210   0.94854   0.63237   0.00000  Uiso   1.00
H94    H     0.00273   0.89605   0.64564   0.00000  Uiso   1.00
H95    H     0.00432   0.66724   0.70181   0.00000  Uiso   1.00
O47    O     0.00419   0.56143   0.69522   0.00000  Uiso   1.00
O48    O     0.00395   0.56138   0.68095   0.00000  Uiso   1.00
H96    H     0.00384   0.66715   0.67436   0.00000  Uiso   1.00
Ni6    Ni    0.00406   0.00576   0.68808   0.00000  Uiso   1.00
C289   C     0.94180   0.00650   0.78307   0.00000  Uiso   1.00
C290   C     0.97277   0.00649   0.77634   0.00000  Uiso   1.00
C291   C     0.03565   0.00648   0.77635   0.00000  Uiso   1.00
C292   C     0.06665   0.00649   0.78308   0.00000  Uiso   1.00
C293   C     0.03406   0.00648   0.78958   0.00000  Uiso   1.00
C294   C     0.97440   0.00649   0.78958   0.00000  Uiso   1.00
C295   C     0.95735   0.00641   0.79685   0.00000  Uiso   1.00
N49    N     0.00426   0.00635   0.80148   0.00000  Uiso   1.00
C296   C     0.05115   0.00641   0.79685   0.00000  Uiso   1.00
N50    N     0.10742   0.00637   0.79898   0.00000  Uiso   1.00
C297   C     0.12445   0.00626   0.80604   0.00000  Uiso   1.00
N51    N     0.08753   0.00613   0.81192   0.00000  Uiso   1.00
C298   C     0.12449   0.00600   0.81780   0.00000  Uiso   1.00
C299   C     0.18249   0.00605   0.81566   0.00000  Uiso   1.00
C300   C     0.18246   0.00622   0.80818   0.00000  Uiso   1.00
N52    N     0.00434   0.00587   0.82235   0.00000  Uiso   1.00
C301   C     0.05126   0.00572   0.82699   0.00000  Uiso   1.00
N53    N     0.10751   0.00578   0.82485   0.00000  Uiso   1.00
C302   C     0.03422   0.00545   0.83426   0.00000  Uiso   1.00
C303   C     0.97454   0.00545   0.83426   0.00000  Uiso   1.00
C304   C     0.95745   0.00572   0.82698   0.00000  Uiso   1.00
C305   C     0.23427   0.00630   0.80409   0.00000  Uiso   1.00
C306   C     0.28796   0.00620   0.80797   0.00000  Uiso   1.00
C307   C     0.28799   0.00602   0.81587   0.00000  Uiso   1.00
C308   C     0.23434   0.00594   0.81975   0.00000  Uiso   1.00
C309   C     0.94192   0.00514   0.84076   0.00000  Uiso   1.00
C310   C     0.97292   0.00479   0.84749   0.00000  Uiso   1.00
C311   C     0.03592   0.00480   0.84749   0.00000  Uiso   1.00
C312   C     0.06687   0.00514   0.84076   0.00000  Uiso   1.00
N54    N     0.92107   0.00613   0.81192   0.00000  Uiso   1.00
C313   C     0.88416   0.00600   0.81780   0.00000  Uiso   1.00
N55    N     0.90119   0.00578   0.82485   0.00000  Uiso   1.00
C314   C     0.82614   0.00605   0.81566   0.00000  Uiso   1.00
C315   C     0.82611   0.00622   0.80817   0.00000  Uiso   1.00
C316   C     0.88411   0.00627   0.80603   0.00000  Uiso   1.00
C317   C     0.77426   0.00630   0.80408   0.00000  Uiso   1.00
C318   C     0.72061   0.00620   0.80797   0.00000  Uiso   1.00
C319   C     0.72064   0.00603   0.81587   0.00000  Uiso   1.00
C320   C     0.77433   0.00595   0.81975   0.00000  Uiso   1.00
N56    N     0.90110   0.00638   0.79898   0.00000  Uiso   1.00
H97    H     0.89422   0.00648   0.78323   0.00000  Uiso   1.00
H98    H     0.11422   0.00647   0.78324   0.00000  Uiso   1.00
H99    H     0.23296   0.00643   0.79812   0.00000  Uiso   1.00
H100   H     0.23308   0.00580   0.82572   0.00000  Uiso   1.00
H101   H     0.89435   0.00513   0.84059   0.00000  Uiso   1.00
H102   H     0.11444   0.00513   0.84060   0.00000  Uiso   1.00
H103   H     0.77552   0.00644   0.79812   0.00000  Uiso   1.00
H104   H     0.77565   0.00581   0.82571   0.00000  Uiso   1.00
C321   C     0.66688   0.00628   0.80416   0.00000  Uiso   1.00
C322   C     0.61440   0.00618   0.80813   0.00000  Uiso   1.00
C323   C     0.61444   0.00600   0.81570   0.00000  Uiso   1.00
C324   C     0.66695   0.00593   0.81968   0.00000  Uiso   1.00
C325   C     0.94229   0.00645   0.76963   0.00000  Uiso   1.00
C326   C     0.97319   0.00639   0.76298   0.00000  Uiso   1.00
C327   C     0.03522   0.00638   0.76299   0.00000  Uiso   1.00
C328   C     0.06612   0.00644   0.76963   0.00000  Uiso   1.00
C329   C     0.34165   0.00627   0.80416   0.00000  Uiso   1.00
C330   C     0.39417   0.00617   0.80814   0.00000  Uiso   1.00
C331   C     0.39420   0.00600   0.81570   0.00000  Uiso   1.00
C332   C     0.34172   0.00592   0.81968   0.00000  Uiso   1.00
C333   C     0.94255   0.00440   0.85422   0.00000  Uiso   1.00
C334   C     0.97428   0.00400   0.86080   0.00000  Uiso   1.00
C335   C     0.03464   0.00400   0.86080   0.00000  Uiso   1.00
C336   C     0.06633   0.00441   0.85422   0.00000  Uiso   1.00
H105   H     0.66567   0.00641   0.79819   0.00000  Uiso   1.00
O49    O     0.55991   0.00624   0.80478   0.00000  Uiso   1.00
O50    O     0.55998   0.00592   0.81905   0.00000  Uiso   1.00
H106   H     0.66581   0.00579   0.82564   0.00000  Uiso   1.00
H107   H     0.89470   0.00644   0.76953   0.00000  Uiso   1.00
O51    O     0.94308   0.00632   0.75629   0.00000  Uiso   1.00
O52    O     0.06533   0.00631   0.75629   0.00000  Uiso   1.00
H108   H     0.11371   0.00643   0.76954   0.00000  Uiso   1.00
H109   H     0.34280   0.00641   0.79819   0.00000  Uiso   1.00
O53    O     0.44862   0.00624   0.80479   0.00000  Uiso   1.00
O54    O     0.44869   0.00591   0.81905   0.00000  Uiso   1.00
H110   H     0.34292   0.00579   0.82565   0.00000  Uiso   1.00
H111   H     0.89498   0.00438   0.85437   0.00000  Uiso   1.00
O55    O     0.94759   0.00355   0.86763   0.00000  Uiso   1.00
O56    O     0.06137   0.00355   0.86763   0.00000  Uiso   1.00
H112   H     0.11390   0.00439   0.85437   0.00000  Uiso   1.00
Ni7    Ni    0.00430   0.00612   0.81192   0.00000  Uiso   1.00
C337   C     0.00516   0.06680   0.34076   0.00000  Uiso   1.00
C338   C     0.00480   0.03584   0.34749   0.00000  Uiso   1.00
C339   C     0.00480   0.97284   0.34749   0.00000  Uiso   1.00
C340   C     0.00516   0.94185   0.34076   0.00000  Uiso   1.00
C341   C     0.00548   0.97446   0.33426   0.00000  Uiso   1.00
C342   C     0.00548   0.03414   0.33426   0.00000  Uiso   1.00
C343   C     0.00576   0.05118   0.32699   0.00000  Uiso   1.00
N57    N     0.00592   0.00427   0.32236   0.00000  Uiso   1.00
C344   C     0.00576   0.95738   0.32699   0.00000  Uiso   1.00
N58    N     0.00583   0.90111   0.32485   0.00000  Uiso   1.00
C345   C     0.00605   0.88408   0.31780   0.00000  Uiso   1.00
N59    N     0.00619   0.92100   0.31192   0.00000  Uiso   1.00
C346   C     0.00633   0.88404   0.30604   0.00000  Uiso   1.00
C347   C     0.00628   0.82604   0.30818   0.00000  Uiso   1.00
C348   C     0.00611   0.82607   0.31566   0.00000  Uiso   1.00
N60    N     0.00641   0.00420   0.30148   0.00000  Uiso   1.00
C349   C     0.00648   0.95728   0.29685   0.00000  Uiso   1.00
N61    N     0.00645   0.90103   0.29898   0.00000  Uiso   1.00
C350   C     0.00656   0.97434   0.28958   0.00000  Uiso   1.00
C351   C     0.00656   0.03400   0.28958   0.00000  Uiso   1.00
C352   C     0.00648   0.05108   0.29685   0.00000  Uiso   1.00
C353   C     0.00600   0.77426   0.31975   0.00000  Uiso   1.00
C354   C     0.00608   0.72057   0.31587   0.00000  Uiso   1.00
C355   C     0.00627   0.72054   0.30797   0.00000  Uiso   1.00
C356   C     0.00637   0.77419   0.30408   0.00000  Uiso   1.00
C357   C     0.00657   0.06659   0.28308   0.00000  Uiso   1.00
C358   C     0.00656   0.03560   0.27635   0.00000  Uiso   1.00
C359   C     0.00656   0.97272   0.27634   0.00000  Uiso   1.00
C360   C     0.00657   0.94174   0.28308   0.00000  Uiso   1.00
N62    N     0.00619   0.08746   0.31192   0.00000  Uiso   1.00
C361   C     0.00632   0.12438   0.30604   0.00000  Uiso   1.00
N63    N     0.00644   0.10735   0.29899   0.00000  Uiso   1.00
C362   C     0.00628   0.18239   0.30818   0.00000  Uiso   1.00
C363   C     0.00610   0.18242   0.31566   0.00000  Uiso   1.00
C364   C     0.00605   0.12442   0.31780   0.00000  Uiso   1.00
C365   C     0.00599   0.23426   0.31976   0.00000  Uiso   1.00
C366   C     0.00608   0.28792   0.31587   0.00000  Uiso   1.00
C367   C     0.00626   0.28789   0.30797   0.00000  Uiso   1.00
C368   C     0.00636   0.23420   0.30409   0.00000  Uiso   1.00
N64    N     0.00583   0.10743   0.32486   0.00000  Uiso   1.00
H113   H     0.00515   0.11437   0.34060   0.00000  Uiso   1.00
H114   H     0.00515   0.89427   0.34060   0.00000  Uiso   1.00
H115   H     0.00585   0.77557   0.32572   0.00000  Uiso   1.00
H116   H     0.00650   0.77545   0.29812   0.00000  Uiso   1.00
H117   H     0.00655   0.11416   0.28325   0.00000  Uiso   1.00
H118   H     0.00656   0.89417   0.28323   0.00000  Uiso   1.00
H119   H     0.00585   0.23301   0.32572   0.00000  Uiso   1.00
H120   H     0.00650   0.23289   0.29812   0.00000  Uiso   1.00
C369   C     0.00597   0.34165   0.31968   0.00000  Uiso   1.00
C370   C     0.00606   0.39413   0.31571   0.00000  Uiso   1.00
C371   C     0.00623   0.39410   0.30814   0.00000  Uiso   1.00
C372   C     0.00634   0.34158   0.30416   0.00000  Uiso   1.00
C373   C     0.00439   0.06625   0.35422   0.00000  Uiso   1.00
C374   C     0.00398   0.03456   0.36081   0.00000  Uiso   1.00
C375   C     0.00398   0.97420   0.36080   0.00000  Uiso   1.00
C376   C     0.00440   0.94247   0.35422   0.00000  Uiso   1.00
C377   C     0.00598   0.66688   0.31968   0.00000  Uiso   1.00
C378   C     0.00606   0.61436   0.31570   0.00000  Uiso   1.00
C379   C     0.00624   0.61433   0.30813   0.00000  Uiso   1.00
C380   C     0.00634   0.66681   0.30416   0.00000  Uiso   1.00
C381   C     0.00652   0.06608   0.26964   0.00000  Uiso   1.00
C382   C     0.00646   0.03518   0.26299   0.00000  Uiso   1.00
C383   C     0.00646   0.97316   0.26298   0.00000  Uiso   1.00
C384   C     0.00652   0.94225   0.26963   0.00000  Uiso   1.00
H121   H     0.00583   0.34285   0.32565   0.00000  Uiso   1.00
O57    O     0.00596   0.44862   0.31906   0.00000  Uiso   1.00
O58    O     0.00630   0.44855   0.30479   0.00000  Uiso   1.00
H122   H     0.00647   0.34273   0.29820   0.00000  Uiso   1.00
H123   H     0.00438   0.11383   0.35437   0.00000  Uiso   1.00
O59    O     0.00351   0.06130   0.36763   0.00000  Uiso   1.00
O60    O     0.00351   0.94751   0.36763   0.00000  Uiso   1.00
H124   H     0.00438   0.89490   0.35437   0.00000  Uiso   1.00
H125   H     0.00583   0.66574   0.32564   0.00000  Uiso   1.00
O61    O     0.00597   0.55991   0.31905   0.00000  Uiso   1.00
O62    O     0.00630   0.55984   0.30479   0.00000  Uiso   1.00
H126   H     0.00648   0.66560   0.29819   0.00000  Uiso   1.00
H127   H     0.00651   0.11367   0.26955   0.00000  Uiso   1.00
O63    O     0.00639   0.06530   0.25630   0.00000  Uiso   1.00
O64    O     0.00640   0.94305   0.25629   0.00000  Uiso   1.00
H128   H     0.00652   0.89466   0.26953   0.00000  Uiso   1.00
Ni8    Ni    0.00618   0.00423   0.31192   0.00000  Uiso   1.00
Zn1    Zn    0.00632   0.00419   0.25000   0.00000  Uiso   1.00
Zn2    Zn    0.00421   0.00625   0.75000   0.00000  Uiso   1.00
Cu1    Cu    0.00547   0.00180   0.12539   0.00000  Uiso   1.00
Cu2    Cu    0.00174   0.00539   0.62539   0.00000  Uiso   1.00
Cu3    Cu    0.00450   0.00303   0.87461   0.00000  Uiso   1.00
Cu4    Cu    0.00298   0.00443   0.37461   0.00000  Uiso   1.00
Cu5    Cu    0.50518   0.00003   0.06270   0.00000  Uiso   1.00
Cu6    Cu    0.00003   0.50510   0.56270   0.00000  Uiso   1.00
Cu7    Cu    0.50473   0.00002   0.93730   0.00000  Uiso   1.00
Cu8    Cu    0.00001   0.50466   0.43730   0.00000  Uiso   1.00
Cu9    Cu    0.00495   0.99967   1.00000   0.00000  Uiso   1.00
Cu10   Cu    0.99969   0.00488   0.50000   0.00000  Uiso   1.00
Cu11   Cu    0.50583   0.00417   0.18809   0.00000  Uiso   1.00
Cu12   Cu    0.00406   0.50576   0.68808   0.00000  Uiso   1.00
Cu13   Cu    0.50430   0.00606   0.81192   0.00000  Uiso   1.00
Cu14   Cu    0.00612   0.50423   0.31192   0.00000  Uiso   1.00
loop_
_geom_bond_atom_site_label_1
_geom_bond_atom_site_label_2
_geom_bond_distance
_geom_bond_site_symmetry_2
_ccdc_geom_bond_type
C1     C2      1.411   .     A
C1     C6      1.395   .     A
C1     H1      1.084   .     S
C2     C3      1.435   1_655 A
C2     C37     1.405   .     A
C3     C2      1.435   1_455 A
C3     C4      1.411   .     A
C3     C40     1.405   .     A
C4     C5      1.394   .     A
C4     H2      1.084   .     S
C5     C6      1.359   1_455 A
C5     C8      1.377   .     A
C6     C5      1.359   1_655 A
C6     C7      1.377   .     A
C7     N1      1.359   1_655 A
C7     N8      1.338   .     A
N1     C7      1.359   1_455 A
N1     C8      1.359   .     A
N1     Ni1     1.895   1_565 S
C8     N2      1.338   .     A
N2     C9      1.338   1_565 A
C9     N2      1.338   1_545 A
C9     N3      1.359   .     A
C9     C12     1.377   .     A
N3     C10     1.359   .     A
N3     Ni1     1.895   .     S
C10    C11     1.377   .     A
C10    N5      1.338   .     A
C11    C12     1.359   .     A
C11    C20     1.394   .     A
C12    C17     1.394   1_545 A
N4     C13     1.359   .     A
N4     C16     1.359   1_455 A
N4     Ni1     1.895   .     S
C13    N5      1.338   .     A
C13    C14     1.377   .     A
C14    C15     1.359   1_455 A
C14    C24     1.394   .     A
C15    C14     1.359   1_655 A
C15    C16     1.377   .     A
C15    C21     1.394   .     A
C16    N4      1.359   1_655 A
C16    N7      1.338   .     A
C17    C12     1.394   1_565 A
C17    C18     1.411   1_565 A
C17    H3      1.084   .     S
C18    C17     1.411   1_545 A
C18    C19     1.435   .     A
C18    C41     1.405   1_545 A
C19    C20     1.411   .     A
C19    C44     1.405   .     A
C20    H4      1.084   .     S
C21    C22     1.411   .     A
C21    H5      1.084   .     S
C22    C23     1.435   1_655 A
C22    C45     1.405   .     A
C23    C22     1.435   1_455 A
C23    C24     1.411   .     A
C23    C48     1.405   .     A
C24    H6      1.084   .     S
N6     C25     1.359   .     A
N6     C28     1.359   .     A
N6     Ni1     1.895   1_655 S
C25    N7      1.338   .     A
C25    C26     1.377   .     A
C26    C27     1.359   .     A
C26    C32     1.394   .     A
C27    C28     1.377   .     A
C27    C29     1.394   1_545 A
C28    N8      1.338   1_545 A
C29    C27     1.394   1_565 A
C29    C30     1.411   1_565 A
C29    H7      1.084   .     S
C30    C29     1.411   1_545 A
C30    C31     1.435   .     A
C30    C33     1.405   1_545 A
C31    C32     1.411   .     A
C31    C36     1.405   .     A
C32    H8      1.084   .     S
N8     C28     1.338   1_565 A
C33    C30     1.405   1_565 A
C33    C34     1.396   1_565 A
C33    H9      1.083   .     S
C34    C33     1.396   1_545 A
C34    C35     1.374   .     A
C34    O1      1.381   1_545 S
C35    C36     1.396   .     A
C35    O2      1.381   .     S
C36    H10     1.083   .     S
C37    C38     1.397   .     A
C37    H11     1.083   .     S
C38    C39     1.374   1_655 A
C38    O3      1.381   .     S
C39    C38     1.374   1_455 A
C39    C40     1.396   .     A
C39    O4      1.381   .     S
C40    H12     1.083   .     S
C41    C18     1.405   1_565 A
C41    C42     1.396   1_565 A
C41    H13     1.083   .     S
C42    C41     1.396   1_545 A
C42    C43     1.374   .     A
C42    O5      1.381   1_545 S
C43    C44     1.396   .     A
C43    O6      1.381   .     S
C44    H14     1.083   .     S
C45    C46     1.396   .     A
C45    H15     1.083   .     S
C46    C47     1.374   1_655 A
C46    O7      1.381   .     S
C47    C46     1.374   1_455 A
C47    C48     1.396   .     A
C47    O8      1.381   .     S
C48    H16     1.083   .     S
O1     C34     1.381   1_565 S
O1     Cu5     1.812   1_565 S
O2     Cu5     1.812   .     S
O3     Cu9     1.812   1_654 S
O4     Cu9     1.812   1_554 S
O5     C42     1.381   1_565 S
O5     Cu5     1.812   1_565 S
O6     Cu5     1.812   .     S
O7     Cu1     1.812   1_655 S
O8     Cu1     1.812   .     S
Ni1    N6      1.895   1_455 S
Ni1    N1      1.895   1_545 S
C49    C50     1.411   1_655 A
C49    C54     1.394   1_655 A
C49    H17     1.084   .     S
C50    C49     1.411   1_455 A
C50    C51     1.435   .     A
C50    C85     1.405   1_455 A
C51    C52     1.411   .     A
C51    C88     1.405   .     A
C52    C53     1.394   .     A
C52    H18     1.084   .     S
C53    C54     1.359   .     A
C53    C56     1.377   .     A
C54    C49     1.394   1_455 A
C54    C55     1.377   .     A
C55    N9      1.359   .     A
C55    N16     1.338   1_455 A
N9     C56     1.359   .     A
N9     Ni2     1.895   1_565 S
C56    N10     1.338   .     A
N10    C57     1.338   .     A
C57    N11     1.359   1_565 A
C57    C60     1.377   .     A
N11    C57     1.359   1_545 A
N11    C58     1.359   .     A
N11    Ni2     1.895   .     S
C58    C59     1.377   .     A
C58    N13     1.338   .     A
C59    C60     1.359   1_545 A
C59    C68     1.394   .     A
C60    C59     1.359   1_565 A
C60    C65     1.394   .     A
N12    C61     1.359   .     A
N12    C64     1.359   .     A
N12    Ni2     1.895   .     S
C61    N13     1.338   .     A
C61    C62     1.377   .     A
C62    C63     1.359   .     A
C62    C72     1.394   .     A
C63    C64     1.377   .     A
C63    C69     1.394   1_455 A
C64    N15     1.338   1_455 A
C65    C66     1.411   .     A
C65    H19     1.084   .     S
C66    C67     1.435   1_565 A
C66    C89     1.405   .     A
C67    C66     1.435   1_545 A
C67    C68     1.411   .     A
C67    C92     1.405   .     A
C68    H20     1.084   .     S
C69    C63     1.394   1_655 A
C69    C70     1.411   1_655 A
C69    H21     1.084   .     S
C70    C69     1.411   1_455 A
C70    C71     1.435   .     A
C70    C93     1.405   1_455 A
C71    C72     1.411   .     A
C71    C96     1.405   .     A
C72    H22     1.084   .     S
N14    C73     1.359   .     A
N14    C76     1.359   1_545 A
N14    Ni2     1.895   1_655 S
C73    N15     1.338   .     A
C73    C74     1.377   .     A
N15    C64     1.338   1_655 A
C74    C75     1.359   1_545 A
C74    C80     1.394   .     A
C75    C74     1.359   1_565 A
C75    C76     1.377   .     A
C75    C77     1.395   .     A
C76    N14     1.359   1_565 A
C76    N16     1.338   .     A
C77    C78     1.411   .     A
C77    H23     1.084   .     S
C78    C79     1.435   1_565 A
C78    C81     1.405   .     A
C79    C78     1.435   1_545 A
C79    C80     1.411   .     A
C79    C84     1.405   .     A
C80    H24     1.084   .     S
N16    C55     1.338   1_655 A
C81    C82     1.397   .     A
C81    H25     1.083   .     S
C82    C83     1.374   1_565 A
C82    O9      1.381   .     S
C83    C82     1.374   1_545 A
C83    C84     1.396   .     A
C83    O10     1.381   .     S
C84    H26     1.083   .     S
C85    C50     1.405   1_655 A
C85    C86     1.396   1_655 A
C85    H27     1.083   .     S
C86    C85     1.396   1_455 A
C86    C87     1.374   .     A
C86    O11     1.381   1_455 S
C87    C88     1.396   .     A
C87    O12     1.381   .     S
C88    H28     1.083   .     S
C89    C90     1.396   .     A
C89    H29     1.083   .     S
C90    C91     1.374   1_565 A
C90    O13     1.381   .     S
C91    C90     1.374   1_545 A
C91    C92     1.396   .     A
C91    O14     1.381   .     S
C92    H30     1.083   .     S
C93    C70     1.405   1_655 A
C93    C94     1.396   1_655 A
C93    H31     1.083   .     S
C94    C93     1.396   1_455 A
C94    C95     1.374   .     A
C94    O15     1.381   1_455 S
C95    C96     1.396   .     A
C95    O16     1.381   .     S
C96    H32     1.083   .     S
O9     Cu10    1.812   1_565 S
O10    Cu10    1.812   .     S
O11    C86     1.381   1_655 S
O11    Cu6     1.812   1_655 S
O12    Cu6     1.812   .     S
O13    Cu2     1.812   1_565 S
O14    Cu2     1.812   .     S
O15    C94     1.381   1_655 S
O15    Cu6     1.812   1_655 S
O16    Cu6     1.812   .     S
Ni2    N9      1.895   1_545 S
Ni2    N14     1.895   1_455 S
C97    C98     1.411   .     A
C97    C102    1.394   .     A
C97    H33     1.084   .     S
C98    C99     1.435   1_655 A
C98    C133    1.405   .     A
C99    C98     1.435   1_455 A
C99    C100    1.411   .     A
C99    C136    1.405   .     A
C100   C101    1.394   .     A
C100   H34     1.084   .     S
C101   C102    1.359   1_455 A
C101   C104    1.377   .     A
C102   C101    1.359   1_655 A
C102   C103    1.377   .     A
C103   N17     1.359   1_655 A
C103   N24     1.338   .     A
N17    C103    1.359   1_455 A
N17    C104    1.359   .     A
N17    Ni3     1.895   .     S
C104   N18     1.338   .     A
N18    C105    1.338   .     A
C105   N19     1.359   .     A
C105   C108    1.377   .     A
N19    C106    1.359   .     A
N19    Ni3     1.895   .     S
C106   C107    1.377   .     A
C106   N21     1.338   1_545 A
C107   C108    1.359   .     A
C107   C116    1.394   1_545 A
C108   C113    1.394   .     A
N20    C109    1.359   .     A
N20    C112    1.359   1_455 A
N20    Ni3     1.895   1_565 S
C109   N21     1.338   .     A
C109   C110    1.377   .     A
N21    C106    1.338   1_565 A
C110   C111    1.359   1_455 A
C110   C120    1.395   .     A
C111   C110    1.359   1_655 A
C111   C112    1.377   .     A
C111   C117    1.394   .     A
C112   N20     1.359   1_655 A
C112   N23     1.338   .     A
C113   C114    1.411   .     A
C113   H35     1.084   .     S
C114   C115    1.435   .     A
C114   C137    1.405   .     A
C115   C116    1.411   1_545 A
C115   C140    1.405   1_545 A
C116   C115    1.411   1_565 A
C116   C107    1.394   1_565 A
C116   H36     1.084   .     S
C117   C118    1.411   .     A
C117   H37     1.084   .     S
C118   C119    1.435   1_655 A
C118   C141    1.405   .     A
C119   C118    1.435   1_455 A
C119   C120    1.411   .     A
C119   C144    1.405   .     A
C120   H38     1.084   .     S
N22    C121    1.359   .     A
N22    C124    1.359   .     A
N22    Ni3     1.895   1_655 S
C121   N23     1.338   1_545 A
C121   C122    1.377   .     A
N23    C121    1.338   1_565 A
C122   C123    1.359   .     A
C122   C128    1.394   1_545 A
C123   C124    1.377   .     A
C123   C125    1.394   .     A
C124   N24     1.338   .     A
C125   C126    1.411   .     A
C125   H39     1.084   .     S
C126   C127    1.435   .     A
C126   C129    1.405   .     A
C127   C128    1.411   1_545 A
C127   C132    1.405   1_545 A
C128   C127    1.411   1_565 A
C128   C122    1.394   1_565 A
C128   H40     1.084   .     S
C129   C130    1.396   .     A
C129   H41     1.083   .     S
C130   C131    1.374   .     A
C130   O17     1.381   .     S
C131   C132    1.396   1_545 A
C131   O18     1.381   1_545 S
C132   C131    1.396   1_565 A
C132   C127    1.405   1_565 A
C132   H42     1.083   .     S
C133   C134    1.396   .     A
C133   H43     1.083   .     S
C134   C135    1.374   1_655 A
C134   O19     1.381   .     S
C135   C134    1.374   1_455 A
C135   C136    1.396   .     A
C135   O20     1.381   .     S
C136   H44     1.083   .     S
C137   C138    1.396   .     A
C137   H45     1.083   .     S
C138   C139    1.374   .     A
C138   O21     1.381   .     S
C139   C140    1.396   1_545 A
C139   O22     1.381   1_545 S
C140   C139    1.396   1_565 A
C140   C115    1.405   1_565 A
C140   H46     1.083   .     S
C141   C142    1.396   .     A
C141   H47     1.083   .     S
C142   C143    1.374   1_655 A
C142   O23     1.381   .     S
C143   C142    1.374   1_455 A
C143   C144    1.397   .     A
C143   O24     1.381   .     S
C144   H48     1.083   .     S
O17    Cu7     1.812   .     S
O18    C131    1.381   1_565 S
O18    Cu7     1.812   1_565 S
O19    Cu3     1.812   1_655 S
O20    Cu3     1.812   .     S
O21    Cu7     1.812   .     S
O22    C139    1.381   1_565 S
O22    Cu7     1.812   1_565 S
O23    Cu9     1.812   1_655 S
O24    Cu9     1.812   .     S
Ni3    N22     1.895   1_455 S
Ni3    N20     1.895   1_545 S
C145   C146    1.411   .     A
C145   C150    1.394   .     A
C145   H49     1.084   .     S
C146   C147    1.435   .     A
C146   C181    1.405   .     A
C147   C148    1.411   1_455 A
C147   C184    1.405   1_455 A
C148   C147    1.411   1_655 A
C148   C149    1.394   1_655 A
C148   H50     1.084   .     S
C149   C148    1.394   1_455 A
C149   C150    1.359   .     A
C149   C152    1.377   1_455 A
C150   C151    1.377   .     A
C151   N25     1.359   .     A
C151   N32     1.338   .     A
N25    C152    1.359   1_455 A
N25    Ni4     1.895   1_565 S
C152   C149    1.377   1_655 A
C152   N25     1.359   1_655 A
C152   N26     1.338   .     A
N26    C153    1.338   .     A
C153   N27     1.359   1_565 A
C153   C156    1.377   .     A
N27    C153    1.359   1_545 A
N27    C154    1.359   .     A
N27    Ni4     1.895   1_655 S
C154   C155    1.377   .     A
C154   N29     1.338   .     A
C155   C156    1.359   1_545 A
C155   C164    1.394   .     A
C156   C155    1.359   1_565 A
C156   C161    1.394   .     A
N28    C157    1.359   1_455 A
N28    C160    1.359   .     A
N28    Ni4     1.895   .     S
C157   N28     1.359   1_655 A
C157   N29     1.338   .     A
C157   C158    1.377   1_655 A
C158   C157    1.377   1_455 A
C158   C159    1.359   .     A
C158   C168    1.394   1_455 A
C159   C160    1.377   .     A
C159   C165    1.394   .     A
C160   N31     1.338   .     A
C161   C162    1.411   .     A
C161   H51     1.084   .     S
C162   C163    1.435   1_565 A
C162   C185    1.405   .     A
C163   C162    1.435   1_545 A
C163   C164    1.411   .     A
C163   C188    1.405   .     A
C164   H52     1.084   .     S
C165   C166    1.411   .     A
C165   H53     1.084   .     S
C166   C167    1.435   .     A
C166   C189    1.405   .     A
C167   C168    1.411   1_455 A
C167   C192    1.405   1_455 A
C168   C167    1.411   1_655 A
C168   C158    1.394   1_655 A
C168   H54     1.084   .     S
N30    C169    1.359   .     A
N30    C172    1.359   1_545 A
N30    Ni4     1.895   .     S
C169   N31     1.338   .     A
C169   C170    1.377   .     A
C170   C171    1.359   1_545 A
C170   C176    1.394   .     A
C171   C170    1.359   1_565 A
C171   C172    1.377   .     A
C171   C173    1.394   .     A
C172   N30     1.359   1_565 A
C172   N32     1.338   .     A
C173   C174    1.411   .     A
C173   H55     1.084   .     S
C174   C175    1.435   1_565 A
C174   C177    1.405   .     A
C175   C174    1.435   1_545 A
C175   C176    1.411   .     A
C175   C180    1.405   .     A
C176   H56     1.084   .     S
C177   C178    1.396   .     A
C177   H57     1.083   .     S
C178   C179    1.374   1_565 A
C178   O25     1.381   .     S
C179   C178    1.374   1_545 A
C179   C180    1.396   .     A
C179   O26     1.381   .     S
C180   H58     1.083   .     S
C181   C182    1.396   .     A
C181   H59     1.083   .     S
C182   C183    1.374   .     A
C182   O27     1.381   .     S
C183   C184    1.396   1_455 A
C183   O28     1.381   1_455 S
C184   C147    1.405   1_655 A
C184   C183    1.396   1_655 A
C184   H60     1.083   .     S
C185   C186    1.396   .     A
C185   H61     1.083   .     S
C186   C187    1.374   1_565 A
C186   O29     1.381   .     S
C187   C186    1.374   1_545 A
C187   C188    1.397   .     A
C187   O30     1.381   .     S
C188   H62     1.083   .     S
C189   C190    1.396   .     A
C189   H63     1.083   .     S
C190   C191    1.374   .     A
C190   O31     1.381   .     S
C191   C192    1.396   1_455 A
C191   O32     1.381   1_455 S
C192   C191    1.396   1_655 A
C192   C167    1.405   1_655 A
C192   H64     1.083   .     S
O25    Cu4     1.812   1_565 S
O26    Cu4     1.812   .     S
O27    Cu8     1.812   .     S
O28    C183    1.381   1_655 S
O28    Cu8     1.812   1_655 S
O29    Cu10    1.812   1_565 S
O30    Cu10    1.812   .     S
O31    Cu8     1.812   .     S
O32    C191    1.381   1_655 S
O32    Cu8     1.812   1_655 S
Ni4    N25     1.895   1_545 S
Ni4    N27     1.895   1_455 S
C193   C194    1.411   .     A
C193   C198    1.394   .     A
C193   H65     1.084   .     S
C194   C195    1.435   1_655 A
C194   C229    1.405   .     A
C195   C194    1.435   1_455 A
C195   C196    1.411   .     A
C195   C232    1.405   .     A
C196   C197    1.394   .     A
C196   H66     1.084   .     S
C197   C198    1.359   1_455 A
C197   C200    1.377   .     A
C198   C197    1.359   1_655 A
C198   C199    1.377   .     A
C199   N33     1.359   1_655 A
C199   N40     1.338   .     A
N33    C199    1.359   1_455 A
N33    C200    1.359   .     A
N33    Ni5     1.895   .     S
C200   N34     1.338   .     A
N34    C201    1.338   .     A
C201   N35     1.359   .     A
C201   C204    1.377   .     A
N35    C202    1.359   .     A
N35    Ni5     1.895   .     S
C202   C203    1.377   .     A
C202   N37     1.338   .     A
C203   C204    1.359   .     A
C203   C212    1.394   .     A
C204   C209    1.394   .     A
N36    C205    1.359   .     A
N36    C208    1.359   1_455 A
N36    Ni5     1.895   .     S
C205   N37     1.338   .     A
C205   C206    1.377   .     A
C206   C207    1.358   1_455 A
C206   C216    1.394   .     A
C207   C206    1.358   1_655 A
C207   C208    1.377   .     A
C207   C213    1.394   .     A
C208   N36     1.359   1_655 A
C208   N39     1.338   .     A
C209   C210    1.411   .     A
C209   H67     1.084   .     S
C210   C211    1.435   .     A
C210   C233    1.405   .     A
C211   C212    1.411   .     A
C211   C236    1.405   .     A
C212   H68     1.084   .     S
C213   C214    1.412   .     A
C213   H69     1.084   .     S
C214   C215    1.432   1_655 A
C214   C237    1.403   .     A
C215   C214    1.432   1_455 A
C215   C216    1.411   .     A
C215   C240    1.403   .     A
C216   H70     1.084   .     S
N38    C217    1.359   .     A
N38    C220    1.359   .     A
N38    Ni5     1.895   1_655 S
C217   N39     1.338   .     A
C217   C218    1.377   .     A
C218   C219    1.359   .     A
C218   C224    1.394   .     A
C219   C220    1.377   .     A
C219   C221    1.394   .     A
C220   N40     1.338   .     A
C221   C222    1.411   .     A
C221   H71     1.084   .     S
C222   C223    1.435   .     A
C222   C225    1.405   .     A
C223   C224    1.411   .     A
C223   C228    1.405   .     A
C224   H72     1.084   .     S
C225   C226    1.396   .     A
C225   H73     1.083   .     S
C226   C227    1.374   .     A
C226   O33     1.381   .     S
C227   C228    1.396   .     A
C227   O34     1.381   .     S
C228   H74     1.083   .     S
C229   C230    1.396   .     A
C229   H75     1.083   .     S
C230   C231    1.374   1_655 A
C230   O35     1.381   .     S
C231   C230    1.374   1_455 A
C231   C232    1.396   .     A
C231   O36     1.381   .     S
C232   H76     1.083   .     S
C233   C234    1.396   .     A
C233   H77     1.083   .     S
C234   C235    1.374   .     A
C234   O37     1.381   .     S
C235   C236    1.396   .     A
C235   O38     1.381   .     S
C236   H78     1.083   .     S
C237   C238    1.397   .     A
C237   H79     1.084   .     S
C238   C239    1.412   1_655 A
C238   O39     1.395   .     S
C239   C238    1.412   1_455 A
C239   C240    1.397   .     A
C239   O40     1.395   .     S
C240   H80     1.084   .     S
O33    Cu11    1.812   .     S
O34    Cu11    1.812   .     S
O35    Cu1     1.812   1_655 S
O36    Cu1     1.812   .     S
O37    Cu11    1.812   .     S
O38    Cu11    1.812   .     S
O39    Zn1     1.800   1_655 S
O40    Zn1     1.800   .     S
Ni5    N38     1.895   1_455 S
C241   C242    1.411   .     A
C241   C246    1.394   .     A
C241   H81     1.084   .     S
C242   C243    1.435   .     A
C242   C277    1.405   .     A
C243   C244    1.411   .     A
C243   C280    1.405   .     A
C244   C245    1.395   .     A
C244   H82     1.084   .     S
C245   C246    1.359   .     A
C245   C248    1.377   .     A
C246   C247    1.377   .     A
C247   N41     1.359   .     A
C247   N48     1.338   .     A
N41    C248    1.359   .     A
N41    Ni6     1.895   .     S
C248   N42     1.338   .     A
N42    C249    1.338   .     A
C249   N43     1.359   .     A
C249   C252    1.377   .     A
N43    C250    1.359   1_545 A
N43    Ni6     1.895   .     S
C250   N43     1.359   1_565 A
C250   C251    1.377   .     A
C250   N45     1.338   .     A
C251   C252    1.359   1_565 A
C251   C260    1.394   .     A
C252   C251    1.359   1_545 A
C252   C257    1.394   .     A
N44    C253    1.359   .     A
N44    C256    1.359   .     A
N44    Ni6     1.895   1_565 S
C253   N45     1.338   .     A
C253   C254    1.377   .     A
C254   C255    1.359   .     A
C254   C264    1.394   .     A
C255   C256    1.377   .     A
C255   C261    1.394   .     A
C256   N47     1.338   .     A
C257   C258    1.411   .     A
C257   H83     1.084   .     S
C258   C259    1.435   1_545 A
C258   C281    1.405   .     A
C259   C258    1.435   1_565 A
C259   C260    1.411   .     A
C259   C284    1.405   .     A
C260   H84     1.084   .     S
C261   C262    1.411   .     A
C261   H85     1.084   .     S
C262   C263    1.435   .     A
C262   C285    1.405   .     A
C263   C264    1.411   .     A
C263   C288    1.405   .     A
C264   H86     1.084   .     S
N46    C265    1.359   1_545 A
N46    C268    1.359   .     A
N46    Ni6     1.895   .     S
C265   N46     1.359   1_565 A
C265   N47     1.338   .     A
C265   C266    1.377   .     A
C266   C267    1.358   1_565 A
C266   C272    1.394   .     A
C267   C266    1.358   1_545 A
C267   C268    1.377   .     A
C267   C269    1.394   .     A
C268   N48     1.338   .     A
C269   C270    1.411   .     A
C269   H87     1.084   .     S
C270   C271    1.432   1_545 A
C270   C273    1.403   .     A
C271   C270    1.432   1_565 A
C271   C272    1.412   .     A
C271   C276    1.403   .     A
C272   H88     1.084   .     S
C273   C274    1.397   .     A
C273   H89     1.084   .     S
C274   C275    1.412   1_545 A
C274   O41     1.395   .     S
C275   C274    1.412   1_565 A
C275   C276    1.397   .     A
C275   O42     1.395   .     S
C276   H90     1.084   .     S
C277   C278    1.396   .     A
C277   H91     1.083   .     S
C278   C279    1.374   .     A
C278   O43     1.381   .     S
C279   C280    1.396   .     A
C279   O44     1.381   .     S
C280   H92     1.083   .     S
C281   C282    1.396   .     A
C281   H93     1.083   .     S
C282   C283    1.374   1_545 A
C282   O45     1.381   .     S
C283   C282    1.374   1_565 A
C283   C284    1.396   .     A
C283   O46     1.381   .     S
C284   H94     1.083   .     S
C285   C286    1.396   .     A
C285   H95     1.083   .     S
C286   C287    1.374   .     A
C286   O47     1.381   .     S
C287   C288    1.396   .     A
C287   O48     1.381   .     S
C288   H96     1.083   .     S
O41    Zn2     1.800   .     S
O42    Zn2     1.800   1_565 S
O43    Cu12    1.812   .     S
O44    Cu12    1.812   .     S
O45    Cu2     1.812   .     S
O46    Cu2     1.812   1_565 S
O47    Cu12    1.812   .     S
O48    Cu12    1.812   .     S
Ni6    N44     1.895   1_545 S
C289   C290    1.412   .     A
C289   C294    1.394   .     A
C289   H97     1.084   .     S
C290   C291    1.432   1_655 A
C290   C325    1.403   .     A
C291   C290    1.432   1_455 A
C291   C292    1.411   .     A
C291   C328    1.403   .     A
C292   C293    1.394   .     A
C292   H98     1.084   .     S
C293   C294    1.358   1_455 A
C293   C296    1.377   .     A
C294   C293    1.358   1_655 A
C294   C295    1.377   .     A
C295   N49     1.359   1_655 A
C295   N56     1.338   .     A
N49    C295    1.359   1_455 A
N49    C296    1.359   .     A
N49    Ni7     1.895   .     S
C296   N50     1.338   .     A
N50    C297    1.338   .     A
C297   N51     1.359   .     A
C297   C300    1.377   .     A
N51    C298    1.359   .     A
N51    Ni7     1.895   .     S
C298   C299    1.377   .     A
C298   N53     1.338   .     A
C299   C300    1.359   .     A
C299   C308    1.394   .     A
C300   C305    1.394   .     A
N52    C301    1.359   .     A
N52    C304    1.359   1_455 A
N52    Ni7     1.895   .     S
C301   N53     1.338   .     A
C301   C302    1.377   .     A
C302   C303    1.359   1_455 A
C302   C312    1.394   .     A
C303   C302    1.359   1_655 A
C303   C304    1.377   .     A
C303   C309    1.394   .     A
C304   N52     1.359   1_655 A
C304   N55     1.338   .     A
C305   C306    1.411   .     A
C305   H99     1.084   .     S
C306   C307    1.435   .     A
C306   C329    1.405   .     A
C307   C308    1.411   .     A
C307   C332    1.405   .     A
C308   H100    1.084   .     S
C309   C310    1.411   .     A
C309   H101    1.084   .     S
C310   C311    1.435   1_655 A
C310   C333    1.405   .     A
C311   C310    1.435   1_455 A
C311   C312    1.411   .     A
C311   C336    1.405   .     A
C312   H102    1.084   .     S
N54    C313    1.359   .     A
N54    C316    1.359   .     A
N54    Ni7     1.895   1_655 S
C313   N55     1.338   .     A
C313   C314    1.377   .     A
C314   C315    1.359   .     A
C314   C320    1.394   .     A
C315   C316    1.377   .     A
C315   C317    1.394   .     A
C316   N56     1.338   .     A
C317   C318    1.411   .     A
C317   H103    1.084   .     S
C318   C319    1.435   .     A
C318   C321    1.405   .     A
C319   C320    1.411   .     A
C319   C324    1.405   .     A
C320   H104    1.084   .     S
C321   C322    1.396   .     A
C321   H105    1.083   .     S
C322   C323    1.374   .     A
C322   O49     1.381   .     S
C323   C324    1.396   .     A
C323   O50     1.381   .     S
C324   H106    1.083   .     S
C325   C326    1.397   .     A
C325   H107    1.084   .     S
C326   C327    1.412   1_655 A
C326   O51     1.395   .     S
C327   C326    1.412   1_455 A
C327   C328    1.397   .     A
C327   O52     1.395   .     S
C328   H108    1.084   .     S
C329   C330    1.396   .     A
C329   H109    1.083   .     S
C330   C331    1.374   .     A
C330   O53     1.381   .     S
C331   C332    1.396   .     A
C331   O54     1.381   .     S
C332   H110    1.083   .     S
C333   C334    1.396   .     A
C333   H111    1.083   .     S
C334   C335    1.374   1_655 A
C334   O55     1.381   .     S
C335   C334    1.374   1_455 A
C335   C336    1.396   .     A
C335   O56     1.381   .     S
C336   H112    1.083   .     S
O49    Cu13    1.812   .     S
O50    Cu13    1.812   .     S
O51    Zn2     1.800   1_655 S
O52    Zn2     1.800   .     S
O53    Cu13    1.812   .     S
O54    Cu13    1.812   .     S
O55    Cu3     1.812   1_655 S
O56    Cu3     1.812   .     S
Ni7    N54     1.895   1_455 S
C337   C338    1.411   .     A
C337   C342    1.394   .     A
C337   H113    1.084   .     S
C338   C339    1.435   1_545 A
C338   C373    1.405   .     A
C339   C338    1.435   1_565 A
C339   C340    1.411   .     A
C339   C376    1.405   .     A
C340   C341    1.394   .     A
C340   H114    1.084   .     S
C341   C342    1.359   1_565 A
C341   C344    1.377   .     A
C342   C341    1.359   1_545 A
C342   C343    1.377   .     A
C343   N57     1.359   .     A
C343   N64     1.338   .     A
N57    C344    1.359   1_545 A
N57    Ni8     1.895   .     S
C344   N57     1.359   1_565 A
C344   N58     1.338   .     A
N58    C345    1.338   .     A
C345   N59     1.359   .     A
C345   C348    1.377   .     A
N59    C346    1.359   .     A
N59    Ni8     1.895   1_565 S
C346   C347    1.377   .     A
C346   N61     1.338   .     A
C347   C348    1.359   .     A
C347   C356    1.394   .     A
C348   C353    1.394   .     A
N60    C349    1.359   1_545 A
N60    C352    1.359   .     A
N60    Ni8     1.895   .     S
C349   N60     1.359   1_565 A
C349   N61     1.338   .     A
C349   C350    1.377   .     A
C350   C351    1.358   1_565 A
C350   C360    1.394   .     A
C351   C350    1.358   1_545 A
C351   C352    1.377   .     A
C351   C357    1.394   .     A
C352   N63     1.338   .     A
C353   C354    1.411   .     A
C353   H115    1.084   .     S
C354   C355    1.435   .     A
C354   C377    1.405   .     A
C355   C356    1.411   .     A
C355   C380    1.405   .     A
C356   H116    1.084   .     S
C357   C358    1.411   .     A
C357   H117    1.084   .     S
C358   C359    1.432   1_545 A
C358   C381    1.403   .     A
C359   C358    1.432   1_565 A
C359   C360    1.412   .     A
C359   C384    1.403   .     A
C360   H118    1.084   .     S
N62    C361    1.359   .     A
N62    C364    1.359   .     A
N62    Ni8     1.895   .     S
C361   N63     1.338   .     A
C361   C362    1.377   .     A
C362   C363    1.359   .     A
C362   C368    1.394   .     A
C363   C364    1.377   .     A
C363   C365    1.394   .     A
C364   N64     1.338   .     A
C365   C366    1.411   .     A
C365   H119    1.084   .     S
C366   C367    1.435   .     A
C366   C369    1.405   .     A
C367   C368    1.411   .     A
C367   C372    1.405   .     A
C368   H120    1.084   .     S
C369   C370    1.396   .     A
C369   H121    1.083   .     S
C370   C371    1.374   .     A
C370   O57     1.381   .     S
C371   C372    1.396   .     A
C371   O58     1.381   .     S
C372   H122    1.083   .     S
C373   C374    1.396   .     A
C373   H123    1.083   .     S
C374   C375    1.374   1_545 A
C374   O59     1.381   .     S
C375   C374    1.374   1_565 A
C375   C376    1.396   .     A
C375   O60     1.381   .     S
C376   H124    1.083   .     S
C377   C378    1.396   .     A
C377   H125    1.083   .     S
C378   C379    1.374   .     A
C378   O61     1.381   .     S
C379   C380    1.396   .     A
C379   O62     1.381   .     S
C380   H126    1.083   .     S
C381   C382    1.397   .     A
C381   H127    1.084   .     S
C382   C383    1.412   1_545 A
C382   O63     1.395   .     S
C383   C382    1.412   1_565 A
C383   C384    1.397   .     A
C383   O64     1.395   .     S
C384   H128    1.084   .     S
O57    Cu14    1.812   .     S
O58    Cu14    1.812   .     S
O59    Cu4     1.812   .     S
O60    Cu4     1.812   1_565 S
O61    Cu14    1.812   .     S
O62    Cu14    1.812   .     S
O63    Zn1     1.800   .     S
O64    Zn1     1.800   1_565 S
Ni8    N59     1.895   1_545 S
Zn1    O64     1.800   1_545 S
Zn1    O39     1.800   1_455 S
Zn2    O51     1.800   1_455 S
Zn2    O42     1.800   1_545 S
Cu1    O35     1.812   1_455 S
Cu1    O7      1.812   1_455 S
Cu2    O46     1.812   1_545 S
Cu2    O13     1.812   1_545 S
Cu3    O19     1.812   1_455 S
Cu3    O55     1.812   1_455 S
Cu4    O25     1.812   1_545 S
Cu4    O60     1.812   1_545 S
Cu5    O1      1.812   1_545 S
Cu5    O5      1.812   1_545 S
Cu6    O11     1.812   1_455 S
Cu6    O15     1.812   1_455 S
Cu7    O18     1.812   1_545 S
Cu7    O22     1.812   1_545 S
Cu8    O28     1.812   1_455 S
Cu8    O32     1.812   1_455 S
Cu9    O4      1.812   1_556 S
Cu9    O3      1.812   1_456 S
Cu9    O23     1.812   1_455 S
Cu10   O29     1.812   1_545 S
Cu10   O9      1.812   1_545 S
