data_etb_Feoct_TP_Cupln_spacer_DHBQ
_audit_creation_date              2023-08-06
_audit_creation_method            'Materials Studio'
_symmetry_space_group_name_H-M    'P1'
_symmetry_Int_Tables_number       1
_symmetry_cell_setting            triclinic
loop_
_symmetry_equiv_pos_as_xyz
  x,y,z
_cell_length_a                    50.8852
_cell_length_b                    50.8849
_cell_length_c                    30.0658
_cell_angle_alpha                 90.0114
_cell_angle_beta                  89.9917
_cell_angle_gamma                 119.9740
loop_
_atom_site_label
_atom_site_type_symbol
_atom_site_fract_x
_atom_site_fract_y
_atom_site_fract_z
_atom_site_U_iso_or_equiv
_atom_site_adp_type
_atom_site_occupancy
Fe1    Fe    0.53111   0.06821   0.09064   0.00000  Uiso   1.00
Fe2    Fe    0.00102   0.38462   0.09063   0.00000  Uiso   1.00
Fe3    Fe    0.68463   0.53809   0.09058   0.00000  Uiso   1.00
Fe4    Fe    0.68460   0.06823   0.09063   0.00000  Uiso   1.00
Fe5    Fe    0.00107   0.53813   0.09062   0.00000  Uiso   1.00
Fe6    Fe    0.53120   0.38469   0.09061   0.00000  Uiso   1.00
C1     C     0.08553   0.32689   0.51268   0.00000  Uiso   1.00
C2     C     0.11101   0.32544   0.53835   0.00000  Uiso   1.00
C3     C     0.13890   0.32807   0.51261   0.00000  Uiso   1.00
C4     C     0.14114   0.33254   0.46168   0.00000  Uiso   1.00
C5     C     0.11587   0.33516   0.43594   0.00000  Uiso   1.00
C6     C     0.08894   0.33372   0.46161   0.00000  Uiso   1.00
C7     C     0.16631   0.33454   0.43999   0.00000  Uiso   1.00
C8     C     0.19135   0.33242   0.46369   0.00000  Uiso   1.00
C9     C     0.18925   0.32822   0.51060   0.00000  Uiso   1.00
C10    C     0.16208   0.32608   0.53430   0.00000  Uiso   1.00
C11    C     0.05973   0.32170   0.53625   0.00000  Uiso   1.00
C12    C     0.05628   0.31643   0.58604   0.00000  Uiso   1.00
C13    C     0.08062   0.31695   0.61012   0.00000  Uiso   1.00
C14    C     0.10808   0.32141   0.58439   0.00000  Uiso   1.00
C15    C     0.06834   0.33891   0.43804   0.00000  Uiso   1.00
C16    C     0.07016   0.34418   0.38825   0.00000  Uiso   1.00
C17    C     0.09397   0.34363   0.36417   0.00000  Uiso   1.00
C18    C     0.11697   0.33918   0.38990   0.00000  Uiso   1.00
H1     H     0.16934   0.33790   0.40463   0.00000  Uiso   1.00
O1     O     0.21435   0.33393   0.44691   0.00000  Uiso   1.00
O2     O     0.21074   0.32672   0.52738   0.00000  Uiso   1.00
H2     H     0.16176   0.32274   0.56966   0.00000  Uiso   1.00
H3     H     0.04072   0.32120   0.51971   0.00000  Uiso   1.00
O3     O     0.03431   0.31179   0.60955   0.00000  Uiso   1.00
O4     O     0.07624   0.31316   0.65086   0.00000  Uiso   1.00
H4     H     0.12533   0.32077   0.60425   0.00000  Uiso   1.00
H5     H     0.04982   0.33942   0.45459   0.00000  Uiso   1.00
O5     O     0.05282   0.34881   0.36474   0.00000  Uiso   1.00
O6     O     0.09337   0.34741   0.32342   0.00000  Uiso   1.00
H6     H     0.13485   0.33980   0.37003   0.00000  Uiso   1.00
C19    C     0.73411   0.70243   0.43591   0.00000  Uiso   1.00
C20    C     0.73556   0.67695   0.46158   0.00000  Uiso   1.00
C21    C     0.74238   0.68036   0.51264   0.00000  Uiso   1.00
C22    C     0.74382   0.70729   0.53832   0.00000  Uiso   1.00
C23    C     0.74120   0.73256   0.51258   0.00000  Uiso   1.00
C24    C     0.73673   0.73032   0.46165   0.00000  Uiso   1.00
C25    C     0.74785   0.70840   0.58436   0.00000  Uiso   1.00
C26    C     0.75230   0.68539   0.61009   0.00000  Uiso   1.00
C27    C     0.75284   0.66158   0.58601   0.00000  Uiso   1.00
C28    C     0.74758   0.65976   0.53621   0.00000  Uiso   1.00
C29    C     0.73008   0.69950   0.38987   0.00000  Uiso   1.00
C30    C     0.72563   0.67204   0.36414   0.00000  Uiso   1.00
C31    C     0.72510   0.64770   0.38821   0.00000  Uiso   1.00
C32    C     0.73037   0.65115   0.43800   0.00000  Uiso   1.00
C33    C     0.73474   0.75349   0.43996   0.00000  Uiso   1.00
C34    C     0.73686   0.78066   0.46366   0.00000  Uiso   1.00
C35    C     0.74106   0.78276   0.51057   0.00000  Uiso   1.00
C36    C     0.74319   0.75773   0.53428   0.00000  Uiso   1.00
H7     H     0.74847   0.72628   0.60423   0.00000  Uiso   1.00
O7     O     0.75608   0.68480   0.65084   0.00000  Uiso   1.00
O8     O     0.75748   0.64424   0.60952   0.00000  Uiso   1.00
H8     H     0.74809   0.64125   0.51967   0.00000  Uiso   1.00
H9     H     0.72945   0.71675   0.37000   0.00000  Uiso   1.00
O9     O     0.72184   0.66767   0.32339   0.00000  Uiso   1.00
O10    O     0.72046   0.62573   0.36469   0.00000  Uiso   1.00
H10    H     0.72987   0.63213   0.45454   0.00000  Uiso   1.00
H11    H     0.73139   0.75317   0.40460   0.00000  Uiso   1.00
O11    O     0.73535   0.80215   0.44688   0.00000  Uiso   1.00
O12    O     0.74256   0.80576   0.52735   0.00000  Uiso   1.00
H12    H     0.74654   0.76076   0.56963   0.00000  Uiso   1.00
C37    C     0.36194   0.95821   0.53835   0.00000  Uiso   1.00
C38    C     0.38886   0.98368   0.51268   0.00000  Uiso   1.00
C39    C     0.39227   0.98027   0.46161   0.00000  Uiso   1.00
C40    C     0.36680   0.95335   0.43594   0.00000  Uiso   1.00
C41    C     0.33892   0.92809   0.46168   0.00000  Uiso   1.00
C42    C     0.33668   0.93033   0.51261   0.00000  Uiso   1.00
C43    C     0.36972   0.95224   0.38989   0.00000  Uiso   1.00
C44    C     0.39717   0.97524   0.36416   0.00000  Uiso   1.00
C45    C     0.42151   0.99905   0.38824   0.00000  Uiso   1.00
C46    C     0.41806   1.00087   0.43804   0.00000  Uiso   1.00
C47    C     0.36083   0.96114   0.58439   0.00000  Uiso   1.00
C48    C     0.38383   0.98859   0.61012   0.00000  Uiso   1.00
C49    C     0.40764   0.01292   0.58605   0.00000  Uiso   1.00
C50    C     0.40945   0.00947   0.53625   0.00000  Uiso   1.00
C51    C     0.31152   0.90716   0.53430   0.00000  Uiso   1.00
C52    C     0.28650   0.88000   0.51059   0.00000  Uiso   1.00
C53    C     0.28860   0.87790   0.46369   0.00000  Uiso   1.00
C54    C     0.31575   0.90293   0.43998   0.00000  Uiso   1.00
H13    H     0.35248   0.93436   0.37002   0.00000  Uiso   1.00
O13    O     0.40155   0.97584   0.32341   0.00000  Uiso   1.00
O14    O     0.44347   0.01639   0.36473   0.00000  Uiso   1.00
H14    H     0.43707   0.01938   0.45458   0.00000  Uiso   1.00
H15    H     0.34295   0.94390   0.60426   0.00000  Uiso   1.00
O15    O     0.38442   0.99297   0.65087   0.00000  Uiso   1.00
O16    O     0.42497   0.03489   0.60956   0.00000  Uiso   1.00
H16    H     0.42796   0.02848   0.51971   0.00000  Uiso   1.00
H17    H     0.30850   0.90749   0.56966   0.00000  Uiso   1.00
O17    O     0.26351   0.85851   0.52737   0.00000  Uiso   1.00
O18    O     0.26712   0.85491   0.44690   0.00000  Uiso   1.00
H18    H     0.31608   0.89990   0.40462   0.00000  Uiso   1.00
C55    C     0.36200   0.32551   0.53834   0.00000  Uiso   1.00
C56    C     0.38893   0.32695   0.51267   0.00000  Uiso   1.00
C57    C     0.39234   0.33377   0.46160   0.00000  Uiso   1.00
C58    C     0.36686   0.33523   0.43594   0.00000  Uiso   1.00
C59    C     0.33897   0.33260   0.46168   0.00000  Uiso   1.00
C60    C     0.33673   0.32813   0.51260   0.00000  Uiso   1.00
C61    C     0.36979   0.33926   0.38990   0.00000  Uiso   1.00
C62    C     0.39725   0.34372   0.36417   0.00000  Uiso   1.00
C63    C     0.42159   0.34424   0.38824   0.00000  Uiso   1.00
C64    C     0.41814   0.33897   0.43803   0.00000  Uiso   1.00
C65    C     0.36090   0.32149   0.58439   0.00000  Uiso   1.00
C66    C     0.38390   0.31703   0.61011   0.00000  Uiso   1.00
C67    C     0.40771   0.31649   0.58604   0.00000  Uiso   1.00
C68    C     0.40953   0.32175   0.53624   0.00000  Uiso   1.00
C69    C     0.31156   0.32612   0.53430   0.00000  Uiso   1.00
C70    C     0.28652   0.32825   0.51059   0.00000  Uiso   1.00
C71    C     0.28862   0.33244   0.46369   0.00000  Uiso   1.00
C72    C     0.31579   0.33458   0.43998   0.00000  Uiso   1.00
H19    H     0.35255   0.33990   0.37003   0.00000  Uiso   1.00
O19    O     0.40163   0.34751   0.32342   0.00000  Uiso   1.00
O20    O     0.44357   0.34887   0.36473   0.00000  Uiso   1.00
H20    H     0.43716   0.33947   0.45457   0.00000  Uiso   1.00
H21    H     0.34302   0.32087   0.60426   0.00000  Uiso   1.00
O21    O     0.38449   0.31325   0.65086   0.00000  Uiso   1.00
O22    O     0.42505   0.31185   0.60955   0.00000  Uiso   1.00
H22    H     0.42805   0.32124   0.51970   0.00000  Uiso   1.00
H23    H     0.30853   0.32277   0.56965   0.00000  Uiso   1.00
O23    O     0.26352   0.32673   0.52737   0.00000  Uiso   1.00
O24    O     0.26713   0.33394   0.44691   0.00000  Uiso   1.00
H24    H     0.31611   0.33793   0.40463   0.00000  Uiso   1.00
C73    C     0.74235   0.98372   0.51266   0.00000  Uiso   1.00
C74    C     0.74380   0.95824   0.53832   0.00000  Uiso   1.00
C75    C     0.74119   0.93035   0.51258   0.00000  Uiso   1.00
C76    C     0.73671   0.92811   0.46165   0.00000  Uiso   1.00
C77    C     0.73409   0.95338   0.43592   0.00000  Uiso   1.00
C78    C     0.73553   0.98031   0.46159   0.00000  Uiso   1.00
C79    C     0.73472   0.90294   0.43996   0.00000  Uiso   1.00
C80    C     0.73686   0.87791   0.46366   0.00000  Uiso   1.00
C81    C     0.74105   0.88001   0.51057   0.00000  Uiso   1.00
C82    C     0.74318   0.90718   0.53428   0.00000  Uiso   1.00
C83    C     0.74754   0.00951   0.53623   0.00000  Uiso   1.00
C84    C     0.75281   0.01297   0.58603   0.00000  Uiso   1.00
C85    C     0.75228   0.98862   0.61010   0.00000  Uiso   1.00
C86    C     0.74783   0.96116   0.58437   0.00000  Uiso   1.00
C87    C     0.73033   1.00090   0.43802   0.00000  Uiso   1.00
C88    C     0.72506   0.99908   0.38823   0.00000  Uiso   1.00
C89    C     0.72560   0.97527   0.36415   0.00000  Uiso   1.00
C90    C     0.73006   0.95227   0.38987   0.00000  Uiso   1.00
H25    H     0.73137   0.89992   0.40460   0.00000  Uiso   1.00
O25    O     0.73535   0.85491   0.44688   0.00000  Uiso   1.00
O26    O     0.74256   0.85852   0.52735   0.00000  Uiso   1.00
H26    H     0.74653   0.90750   0.56963   0.00000  Uiso   1.00
H27    H     0.74804   0.02853   0.51969   0.00000  Uiso   1.00
O27    O     0.75744   0.03494   0.60954   0.00000  Uiso   1.00
O28    O     0.75607   0.99300   0.65085   0.00000  Uiso   1.00
H28    H     0.74847   0.94392   0.60423   0.00000  Uiso   1.00
H29    H     0.72982   0.01942   0.45457   0.00000  Uiso   1.00
O29    O     0.72042   0.01642   0.36472   0.00000  Uiso   1.00
O30    O     0.72182   0.97587   0.32340   0.00000  Uiso   1.00
H30    H     0.72944   0.93439   0.37000   0.00000  Uiso   1.00
C91    C     0.08902   0.67699   0.46160   0.00000  Uiso   1.00
C92    C     0.11594   0.70246   0.43593   0.00000  Uiso   1.00
C93    C     0.14120   0.73034   0.46167   0.00000  Uiso   1.00
C94    C     0.13896   0.73258   0.51260   0.00000  Uiso   1.00
C95    C     0.11108   0.70732   0.53834   0.00000  Uiso   1.00
C96    C     0.08561   0.68040   0.51267   0.00000  Uiso   1.00
C97    C     0.16213   0.75774   0.53430   0.00000  Uiso   1.00
C98    C     0.18929   0.78277   0.51059   0.00000  Uiso   1.00
C99    C     0.19139   0.78067   0.46368   0.00000  Uiso   1.00
C100   C     0.16636   0.75351   0.43997   0.00000  Uiso   1.00
C101   C     0.06843   0.65120   0.43802   0.00000  Uiso   1.00
C102   C     0.07024   0.64774   0.38823   0.00000  Uiso   1.00
C103   C     0.09405   0.67208   0.36415   0.00000  Uiso   1.00
C104   C     0.11705   0.69953   0.38988   0.00000  Uiso   1.00
C105   C     0.05983   0.65980   0.53624   0.00000  Uiso   1.00
C106   C     0.05638   0.66162   0.58604   0.00000  Uiso   1.00
C107   C     0.08071   0.68543   0.61011   0.00000  Uiso   1.00
C108   C     0.10816   0.70843   0.58439   0.00000  Uiso   1.00
H31    H     0.16180   0.76077   0.56965   0.00000  Uiso   1.00
O31    O     0.21077   0.80576   0.52737   0.00000  Uiso   1.00
O32    O     0.21437   0.80215   0.44690   0.00000  Uiso   1.00
H32    H     0.16938   0.75318   0.40462   0.00000  Uiso   1.00
H33    H     0.04992   0.63219   0.45456   0.00000  Uiso   1.00
O33    O     0.05291   0.62578   0.36472   0.00000  Uiso   1.00
O34    O     0.09346   0.66769   0.32340   0.00000  Uiso   1.00
H34    H     0.13493   0.71677   0.37002   0.00000  Uiso   1.00
H35    H     0.04082   0.64129   0.51970   0.00000  Uiso   1.00
O35    O     0.03441   0.64428   0.60954   0.00000  Uiso   1.00
O36    O     0.07633   0.68483   0.65086   0.00000  Uiso   1.00
H36    H     0.12540   0.72630   0.60425   0.00000  Uiso   1.00
Fe7    Fe    0.79328   0.59242   0.88362   0.00000  Uiso   1.00
Fe8    Fe    0.47680   0.12253   0.88366   0.00000  Uiso   1.00
Fe9    Fe    0.94667   0.27598   0.88367   0.00000  Uiso   1.00
Fe10   Fe    0.94677   0.59245   0.88363   0.00000  Uiso   1.00
Fe11   Fe    0.47685   0.27604   0.88365   0.00000  Uiso   1.00
Fe12   Fe    0.79324   0.12256   0.88367   0.00000  Uiso   1.00
C109   C     0.62471   0.10197   0.07823   0.00000  Uiso   1.00
C110   C     0.59206   0.08620   0.08380   0.00000  Uiso   1.00
C111   C     0.57632   0.05386   0.09510   0.00000  Uiso   1.00
C112   C     0.59293   0.03833   0.10046   0.00000  Uiso   1.00
C113   C     0.62505   0.05386   0.09509   0.00000  Uiso   1.00
C114   C     0.64162   0.08620   0.08379   0.00000  Uiso   1.00
H37    H     0.63664   0.12585   0.06989   0.00000  Uiso   1.00
O37    O     0.57434   0.09783   0.07982   0.00000  Uiso   1.00
O38    O     0.54731   0.04125   0.09958   0.00000  Uiso   1.00
H38    H     0.58100   0.01445   0.10882   0.00000  Uiso   1.00
O39    O     0.64146   0.04126   0.09957   0.00000  Uiso   1.00
O40    O     0.67096   0.09784   0.07981   0.00000  Uiso   1.00
C115   C     0.03093   0.47630   0.10046   0.00000  Uiso   1.00
C116   C     0.01540   0.44418   0.09509   0.00000  Uiso   1.00
C117   C     0.98306   0.42761   0.08379   0.00000  Uiso   1.00
C118   C     0.96730   0.44452   0.07822   0.00000  Uiso   1.00
C119   C     0.98307   0.47718   0.08378   0.00000  Uiso   1.00
C120   C     0.01541   0.49292   0.09509   0.00000  Uiso   1.00
H39    H     0.05482   0.48823   0.10882   0.00000  Uiso   1.00
O41    O     0.02800   0.42777   0.09957   0.00000  Uiso   1.00
O42    O     0.97141   0.39827   0.07981   0.00000  Uiso   1.00
H40    H     0.94342   0.43260   0.06987   0.00000  Uiso   1.00
O43    O     0.97145   0.49491   0.07980   0.00000  Uiso   1.00
O44    O     0.02803   0.52192   0.09957   0.00000  Uiso   1.00
C121   C     0.62479   0.44450   0.07817   0.00000  Uiso   1.00
C122   C     0.59213   0.42763   0.08375   0.00000  Uiso   1.00
C123   C     0.57638   0.44422   0.09506   0.00000  Uiso   1.00
C124   C     0.59297   0.47635   0.10043   0.00000  Uiso   1.00
C125   C     0.62509   0.49293   0.09505   0.00000  Uiso   1.00
C126   C     0.64168   0.47716   0.08374   0.00000  Uiso   1.00
H41    H     0.63673   0.43256   0.06982   0.00000  Uiso   1.00
O45    O     0.57443   0.39828   0.07977   0.00000  Uiso   1.00
O46    O     0.54737   0.42784   0.09956   0.00000  Uiso   1.00
H42    H     0.58103   0.48830   0.10880   0.00000  Uiso   1.00
O47    O     0.64149   0.52193   0.09953   0.00000  Uiso   1.00
O48    O     0.67102   0.49486   0.07974   0.00000  Uiso   1.00
Cu1    Cu    0.23893   0.33033   0.48714   0.00000  Uiso   1.00
Cu2    Cu    0.73895   0.83033   0.48712   0.00000  Uiso   1.00
Cu3    Cu    0.23895   0.83033   0.48714   0.00000  Uiso   1.00
C127   C     0.88495   0.62232   0.87380   0.00000  Uiso   1.00
C128   C     0.85283   0.60679   0.87917   0.00000  Uiso   1.00
C129   C     0.83626   0.57445   0.89046   0.00000  Uiso   1.00
C130   C     0.85317   0.55869   0.89603   0.00000  Uiso   1.00
C131   C     0.88582   0.57446   0.89046   0.00000  Uiso   1.00
C132   C     0.90156   0.60680   0.87917   0.00000  Uiso   1.00
H43    H     0.89689   0.64621   0.86544   0.00000  Uiso   1.00
O49    O     0.83642   0.61940   0.87468   0.00000  Uiso   1.00
O50    O     0.80692   0.56281   0.89444   0.00000  Uiso   1.00
H44    H     0.84124   0.53481   0.90437   0.00000  Uiso   1.00
O51    O     0.90354   0.56283   0.89445   0.00000  Uiso   1.00
O52    O     0.93057   0.61941   0.87468   0.00000  Uiso   1.00
C133   C     0.51057   0.21614   0.89607   0.00000  Uiso   1.00
C134   C     0.49480   0.18348   0.89050   0.00000  Uiso   1.00
C135   C     0.46246   0.16775   0.87920   0.00000  Uiso   1.00
C136   C     0.44694   0.18436   0.87383   0.00000  Uiso   1.00
C137   C     0.46247   0.21648   0.87920   0.00000  Uiso   1.00
C138   C     0.49481   0.23305   0.89050   0.00000  Uiso   1.00
H45    H     0.53445   0.22806   0.90441   0.00000  Uiso   1.00
O53    O     0.50643   0.16576   0.89448   0.00000  Uiso   1.00
O54    O     0.44984   0.13874   0.87471   0.00000  Uiso   1.00
H46    H     0.42305   0.17243   0.86547   0.00000  Uiso   1.00
O55    O     0.44987   0.23289   0.87471   0.00000  Uiso   1.00
O56    O     0.50646   0.26239   0.89448   0.00000  Uiso   1.00
C139   C     0.88490   0.18432   0.87383   0.00000  Uiso   1.00
C140   C     0.85279   0.16773   0.87921   0.00000  Uiso   1.00
C141   C     0.83620   0.18349   0.89052   0.00000  Uiso   1.00
C142   C     0.85308   0.21615   0.89609   0.00000  Uiso   1.00
C143   C     0.88574   0.23303   0.89052   0.00000  Uiso   1.00
C144   C     0.90150   0.21644   0.87921   0.00000  Uiso   1.00
H47    H     0.89685   0.17237   0.86546   0.00000  Uiso   1.00
O57    O     0.83639   0.13872   0.87472   0.00000  Uiso   1.00
O58    O     0.80685   0.16579   0.89451   0.00000  Uiso   1.00
H48    H     0.84114   0.22810   0.90445   0.00000  Uiso   1.00
O59    O     0.90344   0.26237   0.89450   0.00000  Uiso   1.00
O60    O     0.93050   0.23283   0.87471   0.00000  Uiso   1.00
C145   C     0.51049   0.05854   0.17719   0.00000  Uiso   1.00
C146   C     0.48508   0.03545   0.15101   0.00000  Uiso   1.00
C147   C     0.45774   0.01391   0.17397   0.00000  Uiso   1.00
C148   C     0.45544   0.01525   0.22175   0.00000  Uiso   1.00
C149   C     0.48042   0.03868   0.24685   0.00000  Uiso   1.00
C150   C     0.50770   0.06003   0.22453   0.00000  Uiso   1.00
O61    O     0.53438   0.07648   0.15441   0.00000  Uiso   1.00
O62    O     0.48993   0.03661   0.10816   0.00000  Uiso   1.00
H49    H     0.43889   0.99653   0.15526   0.00000  Uiso   1.00
O63    O     0.43265   0.99730   0.24680   0.00000  Uiso   1.00
O64    O     0.47509   0.03759   0.28914   0.00000  Uiso   1.00
H50    H     0.52644   0.07731   0.24355   0.00000  Uiso   1.00
Cu4    Cu    0.43820   1.00679   0.30593   0.00000  Uiso   1.00
C151   C     0.03377   0.37132   0.15100   0.00000  Uiso   1.00
C152   C     0.01068   0.37368   0.17718   0.00000  Uiso   1.00
C153   C     0.00919   0.36941   0.22452   0.00000  Uiso   1.00
C154   C     0.03053   0.36346   0.24685   0.00000  Uiso   1.00
C155   C     0.05396   0.36188   0.22175   0.00000  Uiso   1.00
C156   C     0.05531   0.36551   0.17397   0.00000  Uiso   1.00
O65    O     0.03261   0.37501   0.10815   0.00000  Uiso   1.00
O66    O     0.99275   0.37965   0.15439   0.00000  Uiso   1.00
H51    H     0.99191   0.37089   0.24354   0.00000  Uiso   1.00
O67    O     0.03162   0.35923   0.28914   0.00000  Uiso   1.00
O68    O     0.07192   0.35704   0.24681   0.00000  Uiso   1.00
H52    H     0.07269   0.36402   0.15527   0.00000  Uiso   1.00
Cu5    Cu    0.06242   0.35312   0.30593   0.00000  Uiso   1.00
C157   C     0.69559   0.55871   0.17713   0.00000  Uiso   1.00
C158   C     0.69792   0.58414   0.15096   0.00000  Uiso   1.00
C159   C     0.70372   0.61148   0.17394   0.00000  Uiso   1.00
C160   C     0.70736   0.61377   0.22171   0.00000  Uiso   1.00
C161   C     0.70581   0.58878   0.24680   0.00000  Uiso   1.00
C162   C     0.69986   0.56149   0.22447   0.00000  Uiso   1.00
O69    O     0.68963   0.53481   0.15434   0.00000  Uiso   1.00
O70    O     0.69422   0.57929   0.10811   0.00000  Uiso   1.00
H53    H     0.70519   0.63034   0.15524   0.00000  Uiso   1.00
O71    O     0.71220   0.63657   0.24678   0.00000  Uiso   1.00
O72    O     0.71004   0.59410   0.28909   0.00000  Uiso   1.00
H54    H     0.69840   0.54274   0.24348   0.00000  Uiso   1.00
Cu6    Cu    0.71614   0.63101   0.30590   0.00000  Uiso   1.00
C163   C     0.98709   0.35617   0.95801   0.00000  Uiso   1.00
C164   C     0.97018   0.32601   0.93941   0.00000  Uiso   1.00
C165   C     0.96075   0.29996   0.96877   0.00000  Uiso   1.00
C166   C     0.96121   0.30443   0.01629   0.00000  Uiso   1.00
C167   C     0.97447   0.33458   0.03489   0.00000  Uiso   1.00
C168   C     0.99111   0.36064   0.00552   0.00000  Uiso   1.00
H55    H     0.99683   0.37564   0.93609   0.00000  Uiso   1.00
O73    O     0.96298   0.31920   0.89772   0.00000  Uiso   1.00
O74    O     0.95162   0.27423   0.94838   0.00000  Uiso   1.00
H56    H     0.95148   0.28496   0.03821   0.00000  Uiso   1.00
O75    O     0.97409   0.34140   0.07658   0.00000  Uiso   1.00
O76    O     0.00770   0.38636   0.02591   0.00000  Uiso   1.00
C169   C     0.76482   0.57849   0.01624   0.00000  Uiso   1.00
C170   C     0.73467   0.56159   0.03483   0.00000  Uiso   1.00
C171   C     0.70861   0.55217   0.00547   0.00000  Uiso   1.00
C172   C     0.71309   0.55263   0.95795   0.00000  Uiso   1.00
C173   C     0.74324   0.56588   0.93936   0.00000  Uiso   1.00
C174   C     0.76930   0.58252   0.96873   0.00000  Uiso   1.00
H57    H     0.78429   0.58823   0.03816   0.00000  Uiso   1.00
O77    O     0.72786   0.55439   0.07652   0.00000  Uiso   1.00
O78    O     0.68289   0.54304   0.02586   0.00000  Uiso   1.00
H58    H     0.69362   0.54290   0.93603   0.00000  Uiso   1.00
O79    O     0.75006   0.56550   0.89766   0.00000  Uiso   1.00
O80    O     0.79502   0.59911   0.94834   0.00000  Uiso   1.00
C175   C     0.49070   0.10800   0.01629   0.00000  Uiso   1.00
C176   C     0.48670   0.10846   0.96877   0.00000  Uiso   1.00
C177   C     0.50334   0.09902   0.93941   0.00000  Uiso   1.00
C178   C     0.51659   0.08211   0.95801   0.00000  Uiso   1.00
C179   C     0.51704   0.07811   0.00553   0.00000  Uiso   1.00
C180   C     0.50761   0.09475   0.03489   0.00000  Uiso   1.00
H59    H     0.48096   0.11775   0.03820   0.00000  Uiso   1.00
O81    O     0.47011   0.11761   0.94838   0.00000  Uiso   1.00
O82    O     0.50371   0.10620   0.89771   0.00000  Uiso   1.00
H60    H     0.52632   0.07237   0.93610   0.00000  Uiso   1.00
O83    O     0.52618   0.06152   0.02592   0.00000  Uiso   1.00
O84    O     0.51479   0.09513   0.07659   0.00000  Uiso   1.00
C181   C     0.76479   0.10802   0.01629   0.00000  Uiso   1.00
C182   C     0.73464   0.09478   0.03489   0.00000  Uiso   1.00
C183   C     0.70858   0.07814   0.00552   0.00000  Uiso   1.00
C184   C     0.71306   0.08216   0.95800   0.00000  Uiso   1.00
C185   C     0.74321   0.09907   0.93941   0.00000  Uiso   1.00
C186   C     0.76927   0.10848   0.96878   0.00000  Uiso   1.00
H61    H     0.78426   0.11775   0.03821   0.00000  Uiso   1.00
O85    O     0.72782   0.09515   0.07658   0.00000  Uiso   1.00
O86    O     0.68286   0.06155   0.02591   0.00000  Uiso   1.00
H62    H     0.69359   0.07242   0.93608   0.00000  Uiso   1.00
O87    O     0.75002   0.10626   0.89772   0.00000  Uiso   1.00
O88    O     0.79499   0.11762   0.94838   0.00000  Uiso   1.00
C187   C     0.98718   0.55266   0.95799   0.00000  Uiso   1.00
C188   C     0.97027   0.56591   0.93939   0.00000  Uiso   1.00
C189   C     0.96084   0.58255   0.96875   0.00000  Uiso   1.00
C190   C     0.96129   0.57855   0.01626   0.00000  Uiso   1.00
C191   C     0.97454   0.56164   0.03487   0.00000  Uiso   1.00
C192   C     0.99118   0.55220   0.00551   0.00000  Uiso   1.00
H63    H     0.99692   0.54292   0.93608   0.00000  Uiso   1.00
O89    O     0.96310   0.56554   0.89769   0.00000  Uiso   1.00
O90    O     0.95170   0.59914   0.94835   0.00000  Uiso   1.00
H64    H     0.95155   0.58829   0.03818   0.00000  Uiso   1.00
O91    O     0.97416   0.55446   0.07656   0.00000  Uiso   1.00
O92    O     0.00776   0.54305   0.02590   0.00000  Uiso   1.00
C193   C     0.49078   0.30449   0.01628   0.00000  Uiso   1.00
C194   C     0.48676   0.30002   0.96876   0.00000  Uiso   1.00
C195   C     0.50340   0.32608   0.93939   0.00000  Uiso   1.00
C196   C     0.51665   0.35623   0.95799   0.00000  Uiso   1.00
C197   C     0.51711   0.36071   0.00551   0.00000  Uiso   1.00
C198   C     0.50769   0.33465   0.03487   0.00000  Uiso   1.00
H65    H     0.48104   0.28503   0.03819   0.00000  Uiso   1.00
O93    O     0.47017   0.27430   0.94837   0.00000  Uiso   1.00
O94    O     0.50377   0.31926   0.89770   0.00000  Uiso   1.00
H66    H     0.52639   0.37570   0.93607   0.00000  Uiso   1.00
O95    O     0.52625   0.38643   0.02590   0.00000  Uiso   1.00
O96    O     0.51489   0.34146   0.07656   0.00000  Uiso   1.00
C199   C     0.03384   0.58417   0.15099   0.00000  Uiso   1.00
C200   C     0.01074   0.55876   0.17717   0.00000  Uiso   1.00
C201   C     0.00926   0.56155   0.22451   0.00000  Uiso   1.00
C202   C     0.03061   0.58883   0.24684   0.00000  Uiso   1.00
C203   C     0.05404   0.61381   0.22174   0.00000  Uiso   1.00
C204   C     0.05539   0.61151   0.17396   0.00000  Uiso   1.00
O97    O     0.03268   0.57931   0.10814   0.00000  Uiso   1.00
O98    O     0.99280   0.53486   0.15439   0.00000  Uiso   1.00
H67    H     0.99198   0.54281   0.24353   0.00000  Uiso   1.00
O99    O     0.03170   0.59416   0.28912   0.00000  Uiso   1.00
O100   O     0.07200   0.63659   0.24679   0.00000  Uiso   1.00
H68    H     0.07277   0.63035   0.15525   0.00000  Uiso   1.00
Cu7    Cu    0.06251   0.63105   0.30592   0.00000  Uiso   1.00
C205   C     0.51058   0.37374   0.17717   0.00000  Uiso   1.00
C206   C     0.48516   0.37142   0.15100   0.00000  Uiso   1.00
C207   C     0.45782   0.36563   0.17397   0.00000  Uiso   1.00
C208   C     0.45552   0.36198   0.22175   0.00000  Uiso   1.00
C209   C     0.48051   0.36353   0.24684   0.00000  Uiso   1.00
C210   C     0.50780   0.36947   0.22451   0.00000  Uiso   1.00
O101   O     0.53448   0.37970   0.15438   0.00000  Uiso   1.00
O102   O     0.49001   0.37512   0.10815   0.00000  Uiso   1.00
H69    H     0.43896   0.36416   0.15527   0.00000  Uiso   1.00
O103   O     0.43273   0.35715   0.24681   0.00000  Uiso   1.00
O104   O     0.47519   0.35929   0.28913   0.00000  Uiso   1.00
H70    H     0.52655   0.37093   0.24352   0.00000  Uiso   1.00
Cu8    Cu    0.43829   0.35320   0.30593   0.00000  Uiso   1.00
C211   C     0.69555   0.05856   0.17717   0.00000  Uiso   1.00
C212   C     0.69790   0.03548   0.15099   0.00000  Uiso   1.00
C213   C     0.70371   0.01393   0.17396   0.00000  Uiso   1.00
C214   C     0.70734   0.01528   0.22174   0.00000  Uiso   1.00
C215   C     0.70577   0.03871   0.24684   0.00000  Uiso   1.00
C216   C     0.69982   0.06005   0.22452   0.00000  Uiso   1.00
O105   O     0.68958   0.07650   0.15439   0.00000  Uiso   1.00
O106   O     0.69421   0.03663   0.10814   0.00000  Uiso   1.00
H71    H     0.70519   0.99655   0.15525   0.00000  Uiso   1.00
O107   O     0.71218   0.99732   0.24679   0.00000  Uiso   1.00
O108   O     0.71000   0.03762   0.28913   0.00000  Uiso   1.00
H72    H     0.69834   0.07733   0.24353   0.00000  Uiso   1.00
Cu9    Cu    0.71611   1.00682   0.30592   0.00000  Uiso   1.00
C217   C     0.99271   0.28925   0.82328   0.00000  Uiso   1.00
C218   C     0.96729   0.28692   0.79711   0.00000  Uiso   1.00
C219   C     0.97007   0.29119   0.74977   0.00000  Uiso   1.00
C220   C     0.99736   0.29714   0.72744   0.00000  Uiso   1.00
C221   C     0.02235   0.29869   0.75253   0.00000  Uiso   1.00
C222   C     0.02006   0.29504   0.80031   0.00000  Uiso   1.00
O109   O     0.98786   0.28555   0.86613   0.00000  Uiso   1.00
O110   O     0.94339   0.28096   0.81990   0.00000  Uiso   1.00
H73    H     0.95132   0.28973   0.73076   0.00000  Uiso   1.00
O111   O     1.00268   0.30137   0.68516   0.00000  Uiso   1.00
O112   O     0.04514   0.30352   0.72747   0.00000  Uiso   1.00
H74    H     0.03891   0.29651   0.81901   0.00000  Uiso   1.00
Cu10   Cu    0.03959   0.30747   0.66835   0.00000  Uiso   1.00
C223   C     0.77999   0.62518   0.82325   0.00000  Uiso   1.00
C224   C     0.78234   0.60209   0.79707   0.00000  Uiso   1.00
C225   C     0.77807   0.60060   0.74972   0.00000  Uiso   1.00
C226   C     0.77212   0.62195   0.72740   0.00000  Uiso   1.00
C227   C     0.77055   0.64538   0.75250   0.00000  Uiso   1.00
C228   C     0.77418   0.64673   0.80028   0.00000  Uiso   1.00
O113   O     0.78367   0.62402   0.86610   0.00000  Uiso   1.00
O114   O     0.78830   0.58415   0.81985   0.00000  Uiso   1.00
H75    H     0.77955   0.58333   0.73071   0.00000  Uiso   1.00
O115   O     0.76789   0.62304   0.68511   0.00000  Uiso   1.00
O116   O     0.76572   0.66334   0.72745   0.00000  Uiso   1.00
H76    H     0.77269   0.66410   0.81899   0.00000  Uiso   1.00
Cu11   Cu    0.76179   0.65385   0.66832   0.00000  Uiso   1.00
C229   C     0.46713   0.10191   0.79711   0.00000  Uiso   1.00
C230   C     0.44404   0.07650   0.82329   0.00000  Uiso   1.00
C231   C     0.42249   0.04916   0.80032   0.00000  Uiso   1.00
C232   C     0.42384   0.04686   0.75254   0.00000  Uiso   1.00
C233   C     0.44727   0.07183   0.72744   0.00000  Uiso   1.00
C234   C     0.46862   0.09912   0.74977   0.00000  Uiso   1.00
O117   O     0.48507   0.12580   0.81990   0.00000  Uiso   1.00
O118   O     0.44520   0.08135   0.86614   0.00000  Uiso   1.00
H77    H     0.40511   0.03031   0.81903   0.00000  Uiso   1.00
O119   O     0.40588   0.02407   0.72749   0.00000  Uiso   1.00
O120   O     0.44618   0.06651   0.68516   0.00000  Uiso   1.00
H78    H     0.48590   0.11786   0.73075   0.00000  Uiso   1.00
Cu12   Cu    0.41537   0.02962   0.66836   0.00000  Uiso   1.00
C235   C     0.77997   0.07652   0.82328   0.00000  Uiso   1.00
C236   C     0.78230   0.10195   0.79711   0.00000  Uiso   1.00
C237   C     0.77803   0.09917   0.74977   0.00000  Uiso   1.00
C238   C     0.77209   0.07188   0.72744   0.00000  Uiso   1.00
C239   C     0.77054   0.04689   0.75253   0.00000  Uiso   1.00
C240   C     0.77418   0.04918   0.80030   0.00000  Uiso   1.00
O121   O     0.78366   0.08137   0.86613   0.00000  Uiso   1.00
O122   O     0.78826   0.12584   0.81991   0.00000  Uiso   1.00
H79    H     0.77949   0.11792   0.73076   0.00000  Uiso   1.00
O123   O     0.76785   0.06656   0.68515   0.00000  Uiso   1.00
O124   O     0.76570   0.02410   0.72746   0.00000  Uiso   1.00
H80    H     0.77270   0.03032   0.81900   0.00000  Uiso   1.00
Cu13   Cu    0.76176   0.02965   0.66834   0.00000  Uiso   1.00
C241   C     0.99281   0.62521   0.82327   0.00000  Uiso   1.00
C242   C     0.96740   0.60212   0.79708   0.00000  Uiso   1.00
C243   C     0.97018   0.60063   0.74974   0.00000  Uiso   1.00
C244   C     0.99747   0.62198   0.72742   0.00000  Uiso   1.00
C245   C     0.02245   0.64541   0.75252   0.00000  Uiso   1.00
C246   C     0.02015   0.64676   0.80030   0.00000  Uiso   1.00
O125   O     0.98795   0.62405   0.86612   0.00000  Uiso   1.00
O126   O     0.94350   0.58418   0.81987   0.00000  Uiso   1.00
H81    H     0.95145   0.58335   0.73072   0.00000  Uiso   1.00
O127   O     1.00279   0.62307   0.68514   0.00000  Uiso   1.00
O128   O     0.04523   0.66337   0.72747   0.00000  Uiso   1.00
H82    H     0.03899   0.66414   0.81901   0.00000  Uiso   1.00
Cu14   Cu    0.03969   0.65388   0.66834   0.00000  Uiso   1.00
C247   C     0.46719   0.28698   0.79710   0.00000  Uiso   1.00
C248   C     0.44410   0.28934   0.82328   0.00000  Uiso   1.00
C249   C     0.42256   0.29515   0.80031   0.00000  Uiso   1.00
C250   C     0.42390   0.29878   0.75253   0.00000  Uiso   1.00
C251   C     0.44734   0.29720   0.72743   0.00000  Uiso   1.00
C252   C     0.46868   0.29125   0.74976   0.00000  Uiso   1.00
O129   O     0.48512   0.28101   0.81989   0.00000  Uiso   1.00
O130   O     0.44526   0.28565   0.86613   0.00000  Uiso   1.00
H83    H     0.40518   0.29664   0.81901   0.00000  Uiso   1.00
O131   O     0.40595   0.30362   0.72747   0.00000  Uiso   1.00
O132   O     0.44625   0.30143   0.68515   0.00000  Uiso   1.00
H84    H     0.48595   0.28977   0.73075   0.00000  Uiso   1.00
Cu15   Cu    0.41544   0.30754   0.66835   0.00000  Uiso   1.00
loop_
_geom_bond_atom_site_label_1
_geom_bond_atom_site_label_2
_geom_bond_distance
_geom_bond_site_symmetry_2
_ccdc_geom_bond_type
Fe1    O37     1.976   .     S
Fe1    O38     1.940   .     S
Fe1    O61     1.952   .     S
Fe1    O62     1.972   .     S
Fe1    O83     1.970   .     S
Fe1    O84     1.970   .     S
Fe2    O41     1.940   .     S
Fe2    O42     1.976   1_455 S
Fe2    O65     1.972   .     S
Fe2    O66     1.952   1_455 S
Fe2    O75     1.970   1_455 S
Fe2    O76     1.970   .     S
Fe3    O47     1.940   .     S
Fe3    O48     1.976   .     S
Fe3    O69     1.952   .     S
Fe3    O70     1.972   .     S
Fe3    O77     1.970   .     S
Fe3    O78     1.970   .     S
Fe4    O39     1.940   .     S
Fe4    O40     1.976   .     S
Fe4    O85     1.970   .     S
Fe4    O86     1.970   .     S
Fe4    O105    1.952   .     S
Fe4    O106    1.972   .     S
Fe5    O43     1.976   1_455 S
Fe5    O44     1.940   .     S
Fe5    O91     1.970   1_455 S
Fe5    O92     1.970   .     S
Fe5    O97     1.972   .     S
Fe5    O98     1.952   1_455 S
Fe6    O45     1.976   .     S
Fe6    O46     1.940   .     S
Fe6    O95     1.970   .     S
Fe6    O96     1.970   .     S
Fe6    O101    1.952   .     S
Fe6    O102    1.972   .     S
C1     C2      1.542   .     S
C1     C6      1.565   .     S
C1     C11     1.396   .     D
C2     C3      1.562   .     S
C2     C14     1.396   .     D
C3     C4      1.544   .     S
C3     C10     1.395   .     D
C4     C5      1.562   .     S
C4     C7      1.395   .     D
C5     C6      1.542   .     S
C5     C18     1.396   .     D
C6     C15     1.396   .     D
C7     C8      1.510   .     S
C7     H1      1.075   .     S
C8     C9      1.422   .     S
C8     O1      1.241   .     D
C9     C10     1.510   .     S
C9     O2      1.241   .     D
C10    H2      1.075   .     S
C11    C12     1.516   .     S
C11    H3      1.077   .     S
C12    C13     1.423   .     S
C12    O3      1.242   .     D
C13    C14     1.512   .     S
C13    O4      1.243   .     D
C14    H4      1.075   .     S
C15    C16     1.516   .     S
C15    H5      1.077   .     S
C16    C17     1.423   .     S
C16    O5      1.242   .     D
C17    C18     1.512   .     S
C17    O6      1.243   .     D
C18    H6      1.075   .     S
O1     Cu1     1.814   .     S
O2     Cu1     1.814   .     S
O3     Cu10    1.818   .     S
O4     Cu10    1.816   .     S
O5     Cu5     1.818   .     S
O6     Cu5     1.816   .     S
C19    C20     1.542   .     S
C19    C24     1.562   .     S
C19    C29     1.396   .     D
C20    C21     1.565   .     S
C20    C32     1.396   .     D
C21    C22     1.542   .     S
C21    C28     1.396   .     D
C22    C23     1.562   .     S
C22    C25     1.396   .     D
C23    C24     1.544   .     S
C23    C36     1.395   .     D
C24    C33     1.395   .     D
C25    C26     1.512   .     S
C25    H7      1.075   .     S
C26    C27     1.423   .     S
C26    O7      1.243   .     D
C27    C28     1.516   .     S
C27    O8      1.242   .     D
C28    H8      1.077   .     S
C29    C30     1.512   .     S
C29    H9      1.075   .     S
C30    C31     1.423   .     S
C30    O9      1.243   .     D
C31    C32     1.516   .     S
C31    O10     1.242   .     D
C32    H10     1.077   .     S
C33    C34     1.510   .     S
C33    H11     1.075   .     S
C34    C35     1.422   .     S
C34    O11     1.241   .     D
C35    C36     1.510   .     S
C35    O12     1.241   .     D
C36    H12     1.075   .     S
O7     Cu11    1.816   .     S
O8     Cu11    1.818   .     S
O9     Cu6     1.816   .     S
O10    Cu6     1.818   .     S
O11    Cu2     1.814   .     S
O12    Cu2     1.814   .     S
C37    C38     1.542   .     S
C37    C42     1.563   .     S
C37    C47     1.396   .     D
C38    C39     1.565   .     S
C38    C50     1.396   1_565 D
C39    C40     1.542   .     S
C39    C46     1.396   .     D
C40    C41     1.563   .     S
C40    C43     1.396   .     D
C41    C42     1.544   .     S
C41    C54     1.395   .     D
C42    C51     1.395   .     D
C43    C44     1.512   .     S
C43    H13     1.075   .     S
C44    C45     1.423   .     S
C44    O13     1.243   .     D
C45    C46     1.516   .     S
C45    O14     1.242   1_565 D
C46    H14     1.077   1_565 S
C47    C48     1.512   .     S
C47    H15     1.075   .     S
C48    C49     1.423   1_565 S
C48    O15     1.243   .     D
C49    C48     1.423   1_545 S
C49    C50     1.516   .     S
C49    O16     1.242   .     D
C50    C38     1.396   1_545 D
C50    H16     1.077   .     S
C51    C52     1.510   .     S
C51    H17     1.075   .     S
C52    C53     1.422   .     S
C52    O17     1.241   .     D
C53    C54     1.510   .     S
C53    O18     1.241   .     D
C54    H18     1.075   .     S
O13    Cu4     1.816   .     S
O14    C45     1.242   1_545 D
O14    Cu4     1.818   1_545 S
H14    C46     1.077   1_545 S
O15    Cu12    1.816   1_565 S
O16    Cu12    1.818   .     S
O17    Cu3     1.814   .     S
O18    Cu3     1.814   .     S
C55    C56     1.542   .     S
C55    C60     1.562   .     S
C55    C65     1.396   .     D
C56    C57     1.565   .     S
C56    C68     1.396   .     D
C57    C58     1.542   .     S
C57    C64     1.396   .     D
C58    C59     1.562   .     S
C58    C61     1.396   .     D
C59    C60     1.544   .     S
C59    C72     1.395   .     D
C60    C69     1.395   .     D
C61    C62     1.512   .     S
C61    H19     1.075   .     S
C62    C63     1.423   .     S
C62    O19     1.243   .     D
C63    C64     1.516   .     S
C63    O20     1.242   .     D
C64    H20     1.077   .     S
C65    C66     1.512   .     S
C65    H21     1.075   .     S
C66    C67     1.423   .     S
C66    O21     1.243   .     D
C67    C68     1.516   .     S
C67    O22     1.242   .     D
C68    H22     1.077   .     S
C69    C70     1.510   .     S
C69    H23     1.075   .     S
C70    C71     1.422   .     S
C70    O23     1.241   .     D
C71    C72     1.510   .     S
C71    O24     1.241   .     D
C72    H24     1.075   .     S
O19    Cu8     1.816   .     S
O20    Cu8     1.818   .     S
O21    Cu15    1.816   .     S
O22    Cu15    1.818   .     S
O23    Cu1     1.814   .     S
O24    Cu1     1.814   .     S
C73    C74     1.542   .     S
C73    C78     1.565   .     S
C73    C83     1.396   1_565 D
C74    C75     1.562   .     S
C74    C86     1.396   .     D
C75    C76     1.544   .     S
C75    C82     1.395   .     D
C76    C77     1.562   .     S
C76    C79     1.395   .     D
C77    C78     1.542   .     S
C77    C90     1.396   .     D
C78    C87     1.396   .     D
C79    C80     1.510   .     S
C79    H25     1.075   .     S
C80    C81     1.422   .     S
C80    O25     1.241   .     D
C81    C82     1.510   .     S
C81    O26     1.241   .     D
C82    H26     1.075   .     S
C83    C73     1.396   1_545 D
C83    C84     1.516   .     S
C83    H27     1.077   .     S
C84    C85     1.423   1_545 S
C84    O27     1.242   .     D
C85    C84     1.423   1_565 S
C85    C86     1.512   .     S
C85    O28     1.243   .     D
C86    H28     1.075   .     S
C87    C88     1.516   .     S
C87    H29     1.077   1_565 S
C88    C89     1.423   .     S
C88    O29     1.242   1_565 D
C89    C90     1.512   .     S
C89    O30     1.243   .     D
C90    H30     1.075   .     S
O25    Cu2     1.814   .     S
O26    Cu2     1.814   .     S
O27    Cu13    1.818   .     S
O28    Cu13    1.816   1_565 S
H29    C87     1.077   1_545 S
O29    C88     1.242   1_545 D
O29    Cu9     1.818   1_545 S
O30    Cu9     1.816   .     S
C91    C92     1.542   .     S
C91    C96     1.565   .     S
C91    C101    1.396   .     D
C92    C93     1.563   .     S
C92    C104    1.396   .     D
C93    C94     1.544   .     S
C93    C100    1.395   .     D
C94    C95     1.563   .     S
C94    C97     1.395   .     D
C95    C96     1.542   .     S
C95    C108    1.396   .     D
C96    C105    1.396   .     D
C97    C98     1.510   .     S
C97    H31     1.075   .     S
C98    C99     1.422   .     S
C98    O31     1.241   .     D
C99    C100    1.510   .     S
C99    O32     1.241   .     D
C100   H32     1.075   .     S
C101   C102    1.516   .     S
C101   H33     1.077   .     S
C102   C103    1.423   .     S
C102   O33     1.242   .     D
C103   C104    1.512   .     S
C103   O34     1.243   .     D
C104   H34     1.075   .     S
C105   C106    1.516   .     S
C105   H35     1.077   .     S
C106   C107    1.423   .     S
C106   O35     1.242   .     D
C107   C108    1.512   .     S
C107   O36     1.243   .     D
C108   H36     1.075   .     S
O31    Cu3     1.814   .     S
O32    Cu3     1.814   .     S
O33    Cu7     1.818   .     S
O34    Cu7     1.816   .     S
O35    Cu14    1.818   .     S
O36    Cu14    1.816   .     S
Fe7    O49     1.940   .     S
Fe7    O50     1.976   .     S
Fe7    O79     1.970   .     S
Fe7    O80     1.970   .     S
Fe7    O113    1.972   .     S
Fe7    O114    1.952   .     S
Fe8    O53     1.976   .     S
Fe8    O54     1.940   .     S
Fe8    O81     1.970   .     S
Fe8    O82     1.970   .     S
Fe8    O117    1.952   .     S
Fe8    O118    1.972   .     S
Fe9    O59     1.976   .     S
Fe9    O60     1.940   .     S
Fe9    O73     1.970   .     S
Fe9    O74     1.970   .     S
Fe9    O109    1.972   .     S
Fe9    O110    1.952   .     S
Fe10   O51     1.976   .     S
Fe10   O52     1.940   .     S
Fe10   O89     1.970   .     S
Fe10   O90     1.970   .     S
Fe10   O125    1.972   .     S
Fe10   O126    1.952   .     S
Fe11   O55     1.940   .     S
Fe11   O56     1.976   .     S
Fe11   O93     1.970   .     S
Fe11   O94     1.970   .     S
Fe11   O129    1.952   .     S
Fe11   O130    1.972   .     S
Fe12   O57     1.940   .     S
Fe12   O58     1.976   .     S
Fe12   O87     1.970   .     S
Fe12   O88     1.970   .     S
Fe12   O121    1.972   .     S
Fe12   O122    1.952   .     S
C109   C110    1.449   .     A
C109   C114    1.449   .     A
C109   H37     1.082   .     S
C110   C111    1.466   .     S
C110   O37     1.308   .     A
C111   C112    1.425   .     A
C111   O38     1.289   .     A
C112   C113    1.425   .     A
C112   H38     1.083   .     S
C113   C114    1.466   .     S
C113   O39     1.289   .     A
C114   O40     1.308   .     A
C115   C116    1.425   .     A
C115   C120    1.425   .     A
C115   H39     1.083   .     S
C116   C117    1.466   1_455 S
C116   O41     1.289   .     A
C117   C116    1.466   1_655 S
C117   C118    1.449   .     A
C117   O42     1.308   .     A
C118   C119    1.449   .     A
C118   H40     1.082   .     S
C119   C120    1.466   1_655 S
C119   O43     1.308   .     A
C120   C119    1.466   1_455 S
C120   O44     1.289   .     A
O42    Fe2     1.976   1_655 S
O43    Fe5     1.976   1_655 S
C121   C122    1.450   .     A
C121   C126    1.450   .     A
C121   H41     1.082   .     S
C122   C123    1.466   .     S
C122   O45     1.308   .     A
C123   C124    1.425   .     A
C123   O46     1.289   .     A
C124   C125    1.425   .     A
C124   H42     1.083   .     S
C125   C126    1.466   .     S
C125   O47     1.289   .     A
C126   O48     1.308   .     A
C127   C128    1.425   .     A
C127   C132    1.425   .     A
C127   H43     1.083   .     S
C128   C129    1.466   .     S
C128   O49     1.289   .     A
C129   C130    1.449   .     A
C129   O50     1.308   .     A
C130   C131    1.449   .     A
C130   H44     1.082   .     S
C131   C132    1.466   .     S
C131   O51     1.308   .     A
C132   O52     1.289   .     A
C133   C134    1.449   .     A
C133   C138    1.449   .     A
C133   H45     1.082   .     S
C134   C135    1.466   .     S
C134   O53     1.308   .     A
C135   C136    1.425   .     A
C135   O54     1.289   .     A
C136   C137    1.425   .     A
C136   H46     1.083   .     S
C137   C138    1.466   .     S
C137   O55     1.289   .     A
C138   O56     1.308   .     A
C139   C140    1.425   .     A
C139   C144    1.425   .     A
C139   H47     1.083   .     S
C140   C141    1.466   .     S
C140   O57     1.289   .     A
C141   C142    1.450   .     A
C141   O58     1.308   .     A
C142   C143    1.450   .     A
C142   H48     1.082   .     S
C143   C144    1.466   .     S
C143   O59     1.308   .     A
C144   O60     1.289   .     A
C145   C146    1.468   .     S
C145   C150    1.436   .     A
C145   O61     1.293   .     A
C146   C147    1.446   .     A
C146   O62     1.307   .     A
C147   C148    1.446   .     A
C147   H49     1.082   1_545 S
C148   C149    1.447   .     S
C148   O63     1.299   1_545 A
C149   C150    1.432   .     A
C149   O64     1.295   .     A
C150   H50     1.082   .     S
H49    C147    1.082   1_565 S
O63    C148    1.299   1_565 A
O63    Cu4     1.827   .     S
O64    Cu4     1.816   1_545 S
Cu4    O14     1.818   1_565 S
Cu4    O64     1.816   1_565 S
C151   C152    1.468   .     S
C151   C156    1.446   .     A
C151   O65     1.307   .     A
C152   C153    1.436   .     A
C152   O66     1.293   1_455 A
C153   C154    1.432   .     A
C153   H51     1.082   1_455 S
C154   C155    1.447   .     S
C154   O67     1.295   .     A
C155   C156    1.446   .     A
C155   O68     1.299   .     A
C156   H52     1.082   .     S
O66    C152    1.293   1_655 A
O66    Fe2     1.952   1_655 S
H51    C153    1.082   1_655 S
O67    Cu5     1.816   .     S
O68    Cu5     1.827   .     S
C157   C158    1.468   .     S
C157   C162    1.436   .     A
C157   O69     1.293   .     A
C158   C159    1.446   .     A
C158   O70     1.307   .     A
C159   C160    1.446   .     A
C159   H53     1.082   .     S
C160   C161    1.447   .     S
C160   O71     1.299   .     A
C161   C162    1.432   .     A
C161   O72     1.295   .     A
C162   H54     1.082   .     S
O71    Cu6     1.827   .     S
O72    Cu6     1.815   .     S
C163   C164    1.445   .     A
C163   C168    1.445   1_556 A
C163   H55     1.082   .     S
C164   C165    1.460   .     S
C164   O73     1.303   .     A
C165   C166    1.445   1_556 A
C165   O74     1.303   .     A
C166   C165    1.445   1_554 A
C166   C167    1.445   .     A
C166   H56     1.082   .     S
C167   C168    1.460   .     S
C167   O75     1.303   .     A
C168   C163    1.445   1_554 A
C168   O76     1.303   1_655 A
O75    Fe2     1.970   1_655 S
O76    C168    1.303   1_455 A
C169   C170    1.445   .     A
C169   C174    1.445   1_554 A
C169   H57     1.082   .     S
C170   C171    1.460   .     S
C170   O77     1.303   .     A
C171   C172    1.445   1_554 A
C171   O78     1.303   .     A
C172   C171    1.445   1_556 A
C172   C173    1.445   .     A
C172   H58     1.082   .     S
C173   C174    1.460   .     S
C173   O79     1.303   .     A
C174   C169    1.445   1_556 A
C174   O80     1.303   .     A
C175   C176    1.445   1_554 A
C175   C180    1.445   .     A
C175   H59     1.082   .     S
C176   C175    1.445   1_556 A
C176   C177    1.460   .     S
C176   O81     1.303   .     A
C177   C178    1.445   .     A
C177   O82     1.303   .     A
C178   C179    1.445   1_556 A
C178   H60     1.082   .     S
C179   C178    1.445   1_554 A
C179   C180    1.460   .     S
C179   O83     1.303   .     A
C180   O84     1.303   .     A
C181   C182    1.445   .     A
C181   C186    1.445   1_554 A
C181   H61     1.082   .     S
C182   C183    1.460   .     S
C182   O85     1.303   .     A
C183   C184    1.445   1_554 A
C183   O86     1.303   .     A
C184   C183    1.445   1_556 A
C184   C185    1.445   .     A
C184   H62     1.082   .     S
C185   C186    1.460   .     S
C185   O87     1.303   .     A
C186   C181    1.445   1_556 A
C186   O88     1.303   .     A
C187   C188    1.445   .     A
C187   C192    1.445   1_556 A
C187   H63     1.082   .     S
C188   C189    1.460   .     S
C188   O89     1.303   .     A
C189   C190    1.445   1_556 A
C189   O90     1.303   .     A
C190   C189    1.445   1_554 A
C190   C191    1.445   .     A
C190   H64     1.082   .     S
C191   C192    1.460   .     S
C191   O91     1.303   .     A
C192   C187    1.445   1_554 A
C192   O92     1.303   1_655 A
O91    Fe5     1.970   1_655 S
O92    C192    1.303   1_455 A
C193   C194    1.445   1_554 A
C193   C198    1.445   .     A
C193   H65     1.082   .     S
C194   C193    1.445   1_556 A
C194   C195    1.460   .     S
C194   O93     1.303   .     A
C195   C196    1.445   .     A
C195   O94     1.303   .     A
C196   C197    1.445   1_556 A
C196   H66     1.082   .     S
C197   C196    1.445   1_554 A
C197   C198    1.460   .     S
C197   O95     1.303   .     A
C198   O96     1.303   .     A
C199   C200    1.468   .     S
C199   C204    1.446   .     A
C199   O97     1.307   .     A
C200   C201    1.436   .     A
C200   O98     1.293   1_455 A
C201   C202    1.432   .     A
C201   H67     1.082   1_455 S
C202   C203    1.447   .     S
C202   O99     1.295   .     A
C203   C204    1.446   .     A
C203   O100    1.299   .     A
C204   H68     1.082   .     S
O98    C200    1.293   1_655 A
O98    Fe5     1.952   1_655 S
H67    C201    1.082   1_655 S
O99    Cu7     1.816   .     S
O100   Cu7     1.827   .     S
C205   C206    1.468   .     S
C205   C210    1.436   .     A
C205   O101    1.293   .     A
C206   C207    1.446   .     A
C206   O102    1.307   .     A
C207   C208    1.446   .     A
C207   H69     1.082   .     S
C208   C209    1.447   .     S
C208   O103    1.299   .     A
C209   C210    1.432   .     A
C209   O104    1.295   .     A
C210   H70     1.082   .     S
O103   Cu8     1.827   .     S
O104   Cu8     1.816   .     S
C211   C212    1.468   .     S
C211   C216    1.436   .     A
C211   O105    1.293   .     A
C212   C213    1.446   .     A
C212   O106    1.307   .     A
C213   C214    1.446   .     A
C213   H71     1.082   1_545 S
C214   C215    1.447   .     S
C214   O107    1.299   1_545 A
C215   C216    1.432   .     A
C215   O108    1.295   .     A
C216   H72     1.082   .     S
H71    C213    1.082   1_565 S
O107   C214    1.299   1_565 A
O107   Cu9     1.827   .     S
O108   Cu9     1.816   1_545 S
Cu9    O29     1.818   1_565 S
Cu9    O108    1.816   1_565 S
C217   C218    1.468   .     S
C217   C222    1.446   1_655 A
C217   O109    1.307   .     A
C218   C219    1.436   .     A
C218   O110    1.293   .     A
C219   C220    1.432   .     A
C219   H73     1.082   .     S
C220   C221    1.447   1_655 S
C220   O111    1.295   .     A
C221   C220    1.447   1_455 S
C221   C222    1.446   .     A
C221   O112    1.299   .     A
C222   C217    1.446   1_455 A
C222   H74     1.082   .     S
O111   Cu10    1.816   1_655 S
O112   Cu10    1.827   .     S
Cu10   O111    1.816   1_455 S
C223   C224    1.468   .     S
C223   C228    1.446   .     A
C223   O113    1.307   .     A
C224   C225    1.436   .     A
C224   O114    1.293   .     A
C225   C226    1.432   .     A
C225   H75     1.082   .     S
C226   C227    1.447   .     S
C226   O115    1.295   .     A
C227   C228    1.446   .     A
C227   O116    1.299   .     A
C228   H76     1.082   .     S
O115   Cu11    1.816   .     S
O116   Cu11    1.827   .     S
C229   C230    1.468   .     S
C229   C234    1.436   .     A
C229   O117    1.293   .     A
C230   C231    1.446   .     A
C230   O118    1.307   .     A
C231   C232    1.446   .     A
C231   H77     1.082   .     S
C232   C233    1.447   .     S
C232   O119    1.299   .     A
C233   C234    1.432   .     A
C233   O120    1.295   .     A
C234   H78     1.082   .     S
O119   Cu12    1.827   .     S
O120   Cu12    1.816   .     S
Cu12   O15     1.816   1_545 S
C235   C236    1.468   .     S
C235   C240    1.446   .     A
C235   O121    1.307   .     A
C236   C237    1.436   .     A
C236   O122    1.293   .     A
C237   C238    1.432   .     A
C237   H79     1.082   .     S
C238   C239    1.447   .     S
C238   O123    1.295   .     A
C239   C240    1.446   .     A
C239   O124    1.299   .     A
C240   H80     1.082   .     S
O123   Cu13    1.816   .     S
O124   Cu13    1.827   .     S
Cu13   O28     1.816   1_545 S
C241   C242    1.468   .     S
C241   C246    1.446   1_655 A
C241   O125    1.307   .     A
C242   C243    1.436   .     A
C242   O126    1.293   .     A
C243   C244    1.432   .     A
C243   H81     1.082   .     S
C244   C245    1.447   1_655 S
C244   O127    1.295   .     A
C245   C244    1.447   1_455 S
C245   C246    1.446   .     A
C245   O128    1.299   .     A
C246   C241    1.446   1_455 A
C246   H82     1.082   .     S
O127   Cu14    1.816   1_655 S
O128   Cu14    1.827   .     S
Cu14   O127    1.816   1_455 S
C247   C248    1.468   .     S
C247   C252    1.436   .     A
C247   O129    1.293   .     A
C248   C249    1.446   .     A
C248   O130    1.307   .     A
C249   C250    1.446   .     A
C249   H83     1.082   .     S
C250   C251    1.447   .     S
C250   O131    1.299   .     A
C251   C252    1.432   .     A
C251   O132    1.295   .     A
C252   H84     1.082   .     S
O131   Cu15    1.827   .     S
O132   Cu15    1.816   .     S
