data_etb_Feoct_TN_Cupln_spacer_DHBQ
_audit_creation_date              2023-08-06
_audit_creation_method            'Materials Studio'
_symmetry_space_group_name_H-M    'P1'
_symmetry_Int_Tables_number       1
_symmetry_cell_setting            triclinic
loop_
_symmetry_equiv_pos_as_xyz
  x,y,z
_cell_length_a                    61.1742
_cell_length_b                    61.1849
_cell_length_c                    35.5755
_cell_angle_alpha                 90.0017
_cell_angle_beta                  90.0019
_cell_angle_gamma                 120.0010
loop_
_atom_site_label
_atom_site_type_symbol
_atom_site_fract_x
_atom_site_fract_y
_atom_site_fract_z
_atom_site_U_iso_or_equiv
_atom_site_adp_type
_atom_site_occupancy
Fe1    Fe    0.59507   0.08813   0.09435   0.00000  Uiso   1.00
Fe2    Fe    0.00850   0.36861   0.09434   0.00000  Uiso   1.00
Fe3    Fe    0.72803   0.50158   0.09434   0.00000  Uiso   1.00
Fe4    Fe    0.72795   0.08809   0.09436   0.00000  Uiso   1.00
Fe5    Fe    0.00853   0.50150   0.09434   0.00000  Uiso   1.00
Fe6    Fe    0.59514   0.36870   0.09435   0.00000  Uiso   1.00
C1     C     0.10285   0.31677   0.52743   0.00000  Uiso   1.00
C2     C     0.12403   0.31522   0.54915   0.00000  Uiso   1.00
C3     C     0.14788   0.31742   0.52678   0.00000  Uiso   1.00
C4     C     0.14986   0.32138   0.48355   0.00000  Uiso   1.00
C5     C     0.12821   0.32358   0.46118   0.00000  Uiso   1.00
C6     C     0.10548   0.32202   0.48290   0.00000  Uiso   1.00
C7     C     0.17131   0.32307   0.46560   0.00000  Uiso   1.00
C8     C     0.19340   0.32132   0.48452   0.00000  Uiso   1.00
C9     C     0.19149   0.31750   0.52582   0.00000  Uiso   1.00
C10    C     0.16764   0.31574   0.54474   0.00000  Uiso   1.00
C11    C     0.08167   0.31320   0.54851   0.00000  Uiso   1.00
C12    C     0.07755   0.30863   0.59181   0.00000  Uiso   1.00
C13    C     0.09847   0.30861   0.61287   0.00000  Uiso   1.00
C14    C     0.12114   0.31177   0.58858   0.00000  Uiso   1.00
C15    C     0.08787   0.32559   0.46182   0.00000  Uiso   1.00
C16    C     0.08831   0.33015   0.41852   0.00000  Uiso   1.00
C17    C     0.10925   0.33018   0.39746   0.00000  Uiso   1.00
C18    C     0.12876   0.32702   0.42175   0.00000  Uiso   1.00
C19    C     0.11036   0.33321   0.35803   0.00000  Uiso   1.00
C20    C     0.09091   0.33703   0.33474   0.00000  Uiso   1.00
C21    C     0.07120   0.33785   0.35524   0.00000  Uiso   1.00
C22    C     0.07053   0.33397   0.39865   0.00000  Uiso   1.00
C23    C     0.21077   0.31574   0.54490   0.00000  Uiso   1.00
C24    C     0.23436   0.31758   0.52509   0.00000  Uiso   1.00
C25    C     0.23620   0.32127   0.48524   0.00000  Uiso   1.00
C26    C     0.21445   0.32310   0.46544   0.00000  Uiso   1.00
H1     H     0.17331   0.32594   0.43565   0.00000  Uiso   1.00
H2     H     0.16678   0.31288   0.57469   0.00000  Uiso   1.00
H3     H     0.06637   0.31354   0.53406   0.00000  Uiso   1.00
H4     H     0.13567   0.31096   0.60454   0.00000  Uiso   1.00
H5     H     0.07222   0.32524   0.47627   0.00000  Uiso   1.00
H6     H     0.14411   0.32784   0.40580   0.00000  Uiso   1.00
H7     H     0.12567   0.33313   0.34292   0.00000  Uiso   1.00
O1     O     0.08983   0.33976   0.29973   0.00000  Uiso   1.00
O2     O     0.05659   0.34155   0.33463   0.00000  Uiso   1.00
H8     H     0.05536   0.33402   0.41420   0.00000  Uiso   1.00
H9     H     0.20923   0.31295   0.57502   0.00000  Uiso   1.00
O3     O     0.25264   0.31629   0.53901   0.00000  Uiso   1.00
O4     O     0.25577   0.32256   0.47132   0.00000  Uiso   1.00
H10    H     0.21569   0.32589   0.43531   0.00000  Uiso   1.00
C27    C     0.09654   0.30557   0.65230   0.00000  Uiso   1.00
C28    C     0.07327   0.30175   0.67559   0.00000  Uiso   1.00
C29    C     0.05275   0.30093   0.65509   0.00000  Uiso   1.00
C30    C     0.05595   0.30481   0.61168   0.00000  Uiso   1.00
H11    H     0.11193   0.30565   0.66742   0.00000  Uiso   1.00
O5     O     0.06945   0.29902   0.71060   0.00000  Uiso   1.00
O6     O     0.03443   0.29723   0.67569   0.00000  Uiso   1.00
H12    H     0.04073   0.30476   0.59612   0.00000  Uiso   1.00
C31    C     0.77306   0.66632   0.46118   0.00000  Uiso   1.00
C32    C     0.77462   0.64515   0.48290   0.00000  Uiso   1.00
C33    C     0.77987   0.64778   0.52743   0.00000  Uiso   1.00
C34    C     0.78142   0.67050   0.54915   0.00000  Uiso   1.00
C35    C     0.77922   0.69214   0.52679   0.00000  Uiso   1.00
C36    C     0.77525   0.69016   0.48355   0.00000  Uiso   1.00
C37    C     0.78488   0.67106   0.58859   0.00000  Uiso   1.00
C38    C     0.78803   0.65155   0.61287   0.00000  Uiso   1.00
C39    C     0.78801   0.63061   0.59181   0.00000  Uiso   1.00
C40    C     0.78344   0.63017   0.54851   0.00000  Uiso   1.00
C41    C     0.76961   0.66343   0.42175   0.00000  Uiso   1.00
C42    C     0.76646   0.64077   0.39746   0.00000  Uiso   1.00
C43    C     0.76649   0.61985   0.41852   0.00000  Uiso   1.00
C44    C     0.77105   0.62398   0.46182   0.00000  Uiso   1.00
C45    C     0.77356   0.70991   0.46560   0.00000  Uiso   1.00
C46    C     0.77532   0.73376   0.48452   0.00000  Uiso   1.00
C47    C     0.77914   0.73567   0.52582   0.00000  Uiso   1.00
C48    C     0.78090   0.71358   0.54474   0.00000  Uiso   1.00
C49    C     0.78090   0.75671   0.54490   0.00000  Uiso   1.00
C50    C     0.77906   0.77845   0.52510   0.00000  Uiso   1.00
C51    C     0.77537   0.77661   0.48524   0.00000  Uiso   1.00
C52    C     0.77354   0.75303   0.46544   0.00000  Uiso   1.00
C53    C     0.79182   0.61283   0.61168   0.00000  Uiso   1.00
C54    C     0.79570   0.61350   0.65509   0.00000  Uiso   1.00
C55    C     0.79489   0.63321   0.67559   0.00000  Uiso   1.00
C56    C     0.79107   0.65265   0.65231   0.00000  Uiso   1.00
H13    H     0.78569   0.68641   0.60454   0.00000  Uiso   1.00
H14    H     0.78309   0.61452   0.53406   0.00000  Uiso   1.00
H15    H     0.76880   0.67796   0.40580   0.00000  Uiso   1.00
H16    H     0.77140   0.60868   0.47627   0.00000  Uiso   1.00
H17    H     0.77070   0.70905   0.43565   0.00000  Uiso   1.00
H18    H     0.78376   0.71559   0.57469   0.00000  Uiso   1.00
H19    H     0.78370   0.75796   0.57503   0.00000  Uiso   1.00
O7     O     0.78034   0.79802   0.53902   0.00000  Uiso   1.00
O8     O     0.77407   0.79488   0.47132   0.00000  Uiso   1.00
H20    H     0.77075   0.75148   0.43531   0.00000  Uiso   1.00
H21    H     0.79187   0.59766   0.59612   0.00000  Uiso   1.00
O9     O     0.79940   0.59889   0.67569   0.00000  Uiso   1.00
O10    O     0.79763   0.63212   0.71060   0.00000  Uiso   1.00
H22    H     0.79099   0.66796   0.66742   0.00000  Uiso   1.00
C57    C     0.76268   0.59826   0.39865   0.00000  Uiso   1.00
C58    C     0.75880   0.59505   0.35524   0.00000  Uiso   1.00
C59    C     0.75961   0.61557   0.33474   0.00000  Uiso   1.00
C60    C     0.76342   0.63883   0.35802   0.00000  Uiso   1.00
H23    H     0.76263   0.58304   0.41421   0.00000  Uiso   1.00
O11    O     0.75510   0.57674   0.33463   0.00000  Uiso   1.00
O12    O     0.75687   0.61175   0.29973   0.00000  Uiso   1.00
H24    H     0.76350   0.65422   0.34291   0.00000  Uiso   1.00
C61    C     0.42615   0.97260   0.54916   0.00000  Uiso   1.00
C62    C     0.44887   0.99377   0.52744   0.00000  Uiso   1.00
C63    C     0.45150   0.99115   0.48291   0.00000  Uiso   1.00
C64    C     0.43033   0.96842   0.46119   0.00000  Uiso   1.00
C65    C     0.40649   0.94677   0.48356   0.00000  Uiso   1.00
C66    C     0.40451   0.94875   0.52679   0.00000  Uiso   1.00
C67    C     0.43322   0.96787   0.42176   0.00000  Uiso   1.00
C68    C     0.45588   0.98738   0.39747   0.00000  Uiso   1.00
C69    C     0.47680   0.00832   0.41853   0.00000  Uiso   1.00
C70    C     0.47268   0.00876   0.46183   0.00000  Uiso   1.00
C71    C     0.42559   0.97550   0.58859   0.00000  Uiso   1.00
C72    C     0.44510  -0.00184   0.61288   0.00000  Uiso   1.00
C73    C     0.46604   0.01908   0.59182   0.00000  Uiso   1.00
C74    C     0.46648   0.01495   0.54852   0.00000  Uiso   1.00
C75    C     0.38306   0.92899   0.54474   0.00000  Uiso   1.00
C76    C     0.36098   0.90514   0.52582   0.00000  Uiso   1.00
C77    C     0.36289   0.90323   0.48452   0.00000  Uiso   1.00
C78    C     0.38673   0.92533   0.46560   0.00000  Uiso   1.00
C79    C     0.34362   0.88219   0.46544   0.00000  Uiso   1.00
C80    C     0.32004   0.86043   0.48524   0.00000  Uiso   1.00
C81    C     0.31819   0.86228   0.52510   0.00000  Uiso   1.00
C82    C     0.33994   0.88586   0.54490   0.00000  Uiso   1.00
C83    C     0.49840   0.02610   0.39866   0.00000  Uiso   1.00
C84    C     0.50160   0.02542   0.35525   0.00000  Uiso   1.00
C85    C     0.48107   0.00572   0.33474   0.00000  Uiso   1.00
C86    C     0.45781   0.98627   0.35803   0.00000  Uiso   1.00
H25    H     0.41868   0.95252   0.40580   0.00000  Uiso   1.00
H26    H     0.48798   0.02441   0.47628   0.00000  Uiso   1.00
H27    H     0.41024   0.96096   0.60454   0.00000  Uiso   1.00
H28    H     0.48213   0.03025   0.53407   0.00000  Uiso   1.00
H29    H     0.38106   0.92985   0.57470   0.00000  Uiso   1.00
H30    H     0.38759   0.92332   0.43565   0.00000  Uiso   1.00
H31    H     0.34516   0.88095   0.43531   0.00000  Uiso   1.00
O13    O     0.30176   0.84086   0.47132   0.00000  Uiso   1.00
O14    O     0.29862   0.84399   0.53902   0.00000  Uiso   1.00
H32    H     0.33869   0.88741   0.57503   0.00000  Uiso   1.00
H33    H     0.51362   0.04127   0.41422   0.00000  Uiso   1.00
O15    O     0.51991   0.04004   0.33464   0.00000  Uiso   1.00
O16    O     0.48489   0.00681   0.29973   0.00000  Uiso   1.00
H34    H     0.44242   0.97097   0.34292   0.00000  Uiso   1.00
C87    C     0.48383   0.04068   0.61169   0.00000  Uiso   1.00
C88    C     0.48315   0.04388   0.65510   0.00000  Uiso   1.00
C89    C     0.46344   0.02336   0.67560   0.00000  Uiso   1.00
C90    C     0.44400   0.00010   0.65231   0.00000  Uiso   1.00
H35    H     0.49900   0.05590   0.59613   0.00000  Uiso   1.00
O17    O     0.49776   0.06220   0.67570   0.00000  Uiso   1.00
O18    O     0.46453   0.02719   0.71061   0.00000  Uiso   1.00
H36    H     0.42869   0.98471   0.66742   0.00000  Uiso   1.00
C91    C     0.42619   0.31529   0.54915   0.00000  Uiso   1.00
C92    C     0.44893   0.31685   0.52743   0.00000  Uiso   1.00
C93    C     0.45155   0.32210   0.48290   0.00000  Uiso   1.00
C94    C     0.43037   0.32365   0.46118   0.00000  Uiso   1.00
C95    C     0.40653   0.32145   0.48355   0.00000  Uiso   1.00
C96    C     0.40455   0.31749   0.52678   0.00000  Uiso   1.00
C97    C     0.43327   0.32710   0.42175   0.00000  Uiso   1.00
C98    C     0.45594   0.33026   0.39746   0.00000  Uiso   1.00
C99    C     0.47686   0.33024   0.41852   0.00000  Uiso   1.00
C100   C     0.47273   0.32567   0.46182   0.00000  Uiso   1.00
C101   C     0.42564   0.31184   0.58858   0.00000  Uiso   1.00
C102   C     0.44515   0.30869   0.61287   0.00000  Uiso   1.00
C103   C     0.46610   0.30872   0.59181   0.00000  Uiso   1.00
C104   C     0.46654   0.31328   0.54851   0.00000  Uiso   1.00
C105   C     0.38310   0.31579   0.54473   0.00000  Uiso   1.00
C106   C     0.36101   0.31755   0.52581   0.00000  Uiso   1.00
C107   C     0.36291   0.32137   0.48451   0.00000  Uiso   1.00
C108   C     0.38677   0.32313   0.46559   0.00000  Uiso   1.00
C109   C     0.34363   0.32313   0.46543   0.00000  Uiso   1.00
C110   C     0.32005   0.32129   0.48524   0.00000  Uiso   1.00
C111   C     0.31820   0.31760   0.52509   0.00000  Uiso   1.00
C112   C     0.33996   0.31577   0.54489   0.00000  Uiso   1.00
C113   C     0.49846   0.33406   0.39865   0.00000  Uiso   1.00
C114   C     0.50166   0.33794   0.35524   0.00000  Uiso   1.00
C115   C     0.48113   0.33712   0.33474   0.00000  Uiso   1.00
C116   C     0.45787   0.33330   0.35803   0.00000  Uiso   1.00
H37    H     0.41873   0.32791   0.40579   0.00000  Uiso   1.00
H38    H     0.48804   0.32533   0.47627   0.00000  Uiso   1.00
H39    H     0.41029   0.31103   0.60453   0.00000  Uiso   1.00
H40    H     0.48219   0.31363   0.53406   0.00000  Uiso   1.00
H41    H     0.38110   0.31294   0.57469   0.00000  Uiso   1.00
H42    H     0.38762   0.32599   0.43564   0.00000  Uiso   1.00
H43    H     0.34518   0.32592   0.43531   0.00000  Uiso   1.00
O19    O     0.30176   0.32257   0.47131   0.00000  Uiso   1.00
O20    O     0.29863   0.31630   0.53901   0.00000  Uiso   1.00
H44    H     0.33872   0.31298   0.57502   0.00000  Uiso   1.00
H45    H     0.51368   0.33411   0.41421   0.00000  Uiso   1.00
O21    O     0.51998   0.34164   0.33464   0.00000  Uiso   1.00
O22    O     0.48496   0.33985   0.29973   0.00000  Uiso   1.00
H46    H     0.44248   0.33322   0.34291   0.00000  Uiso   1.00
C117   C     0.48388   0.30490   0.61168   0.00000  Uiso   1.00
C118   C     0.48320   0.30102   0.65509   0.00000  Uiso   1.00
C119   C     0.46349   0.30184   0.67559   0.00000  Uiso   1.00
C120   C     0.44405   0.30566   0.65230   0.00000  Uiso   1.00
H47    H     0.49905   0.30485   0.59613   0.00000  Uiso   1.00
O23    O     0.49781   0.29732   0.67570   0.00000  Uiso   1.00
O24    O     0.46458   0.29911   0.71060   0.00000  Uiso   1.00
H48    H     0.42874   0.30574   0.66741   0.00000  Uiso   1.00
C121   C     0.77979   0.99372   0.52743   0.00000  Uiso   1.00
C122   C     0.78135   0.97255   0.54915   0.00000  Uiso   1.00
C123   C     0.77915   0.94871   0.52678   0.00000  Uiso   1.00
C124   C     0.77519   0.94673   0.48355   0.00000  Uiso   1.00
C125   C     0.77298   0.96837   0.46118   0.00000  Uiso   1.00
C126   C     0.77454   0.99109   0.48290   0.00000  Uiso   1.00
C127   C     0.77351   0.92529   0.46559   0.00000  Uiso   1.00
C128   C     0.77527   0.90320   0.48451   0.00000  Uiso   1.00
C129   C     0.77909   0.90511   0.52581   0.00000  Uiso   1.00
C130   C     0.78084   0.92896   0.54473   0.00000  Uiso   1.00
C131   C     0.78336   0.01489   0.54851   0.00000  Uiso   1.00
C132   C     0.78792   0.01902   0.59181   0.00000  Uiso   1.00
C133   C     0.78795   0.99811   0.61287   0.00000  Uiso   1.00
C134   C     0.78479   0.97545   0.58858   0.00000  Uiso   1.00
C135   C     0.77097   0.00870   0.46182   0.00000  Uiso   1.00
C136   C     0.76640   0.00826   0.41852   0.00000  Uiso   1.00
C137   C     0.76638   0.98732   0.39746   0.00000  Uiso   1.00
C138   C     0.76953   0.96781   0.42174   0.00000  Uiso   1.00
C139   C     0.76334   0.98622   0.35802   0.00000  Uiso   1.00
C140   C     0.75952   0.00566   0.33474   0.00000  Uiso   1.00
C141   C     0.75871   0.02537   0.35524   0.00000  Uiso   1.00
C142   C     0.76259   0.02604   0.39865   0.00000  Uiso   1.00
C143   C     0.78086   0.88584   0.54489   0.00000  Uiso   1.00
C144   C     0.77904   0.86226   0.52509   0.00000  Uiso   1.00
C145   C     0.77535   0.86042   0.48524   0.00000  Uiso   1.00
C146   C     0.77351   0.88216   0.46543   0.00000  Uiso   1.00
H49    H     0.77065   0.92329   0.43564   0.00000  Uiso   1.00
H50    H     0.78370   0.92981   0.57469   0.00000  Uiso   1.00
H51    H     0.78300   0.03019   0.53406   0.00000  Uiso   1.00
H52    H     0.78561   0.96091   0.60454   0.00000  Uiso   1.00
H53    H     0.77131   0.02435   0.47627   0.00000  Uiso   1.00
H54    H     0.76872   0.95247   0.40579   0.00000  Uiso   1.00
H55    H     0.76341   0.97091   0.34291   0.00000  Uiso   1.00
O25    O     0.75678   0.00675   0.29973   0.00000  Uiso   1.00
O26    O     0.75500   0.03998   0.33464   0.00000  Uiso   1.00
H56    H     0.76254   0.04121   0.41421   0.00000  Uiso   1.00
H57    H     0.78365   0.88739   0.57502   0.00000  Uiso   1.00
O27    O     0.78033   0.84399   0.53902   0.00000  Uiso   1.00
O28    O     0.77406   0.84085   0.47131   0.00000  Uiso   1.00
H58    H     0.77072   0.88092   0.43530   0.00000  Uiso   1.00
C147   C     0.79098   0.00004   0.65231   0.00000  Uiso   1.00
C148   C     0.79480   0.02330   0.67560   0.00000  Uiso   1.00
C149   C     0.79561   0.04382   0.65509   0.00000  Uiso   1.00
C150   C     0.79173   0.04061   0.61168   0.00000  Uiso   1.00
H59    H     0.79090   0.98465   0.66742   0.00000  Uiso   1.00
O29    O     0.79753   0.02712   0.71060   0.00000  Uiso   1.00
O30    O     0.79931   0.06213   0.67570   0.00000  Uiso   1.00
H60    H     0.79178   0.05583   0.59612   0.00000  Uiso   1.00
C151   C     0.10553   0.64509   0.48289   0.00000  Uiso   1.00
C152   C     0.12826   0.66627   0.46117   0.00000  Uiso   1.00
C153   C     0.14990   0.69012   0.48354   0.00000  Uiso   1.00
C154   C     0.14792   0.69210   0.52677   0.00000  Uiso   1.00
C155   C     0.12408   0.67045   0.54914   0.00000  Uiso   1.00
C156   C     0.10291   0.64772   0.52742   0.00000  Uiso   1.00
C157   C     0.16768   0.71354   0.54473   0.00000  Uiso   1.00
C158   C     0.19152   0.73564   0.52581   0.00000  Uiso   1.00
C159   C     0.19343   0.73373   0.48450   0.00000  Uiso   1.00
C160   C     0.17134   0.70988   0.46559   0.00000  Uiso   1.00
C161   C     0.08792   0.62392   0.46181   0.00000  Uiso   1.00
C162   C     0.08836   0.61979   0.41851   0.00000  Uiso   1.00
C163   C     0.10931   0.64071   0.39745   0.00000  Uiso   1.00
C164   C     0.12881   0.66337   0.42174   0.00000  Uiso   1.00
C165   C     0.08173   0.63011   0.54850   0.00000  Uiso   1.00
C166   C     0.07761   0.63055   0.59180   0.00000  Uiso   1.00
C167   C     0.09853   0.65149   0.61286   0.00000  Uiso   1.00
C168   C     0.12119   0.67100   0.58857   0.00000  Uiso   1.00
C169   C     0.09660   0.65260   0.65230   0.00000  Uiso   1.00
C170   C     0.07334   0.63315   0.67559   0.00000  Uiso   1.00
C171   C     0.05281   0.61345   0.65508   0.00000  Uiso   1.00
C172   C     0.05601   0.61277   0.61167   0.00000  Uiso   1.00
C173   C     0.21447   0.75300   0.46543   0.00000  Uiso   1.00
C174   C     0.23622   0.77659   0.48523   0.00000  Uiso   1.00
C175   C     0.23437   0.77844   0.52509   0.00000  Uiso   1.00
C176   C     0.21079   0.75668   0.54489   0.00000  Uiso   1.00
H61    H     0.16682   0.71555   0.57468   0.00000  Uiso   1.00
H62    H     0.17335   0.70902   0.43563   0.00000  Uiso   1.00
H63    H     0.07228   0.60861   0.47626   0.00000  Uiso   1.00
H64    H     0.14416   0.67791   0.40579   0.00000  Uiso   1.00
H65    H     0.06643   0.61446   0.53405   0.00000  Uiso   1.00
H66    H     0.13572   0.68635   0.60453   0.00000  Uiso   1.00
H67    H     0.11199   0.66790   0.66741   0.00000  Uiso   1.00
O31    O     0.06951   0.63206   0.71060   0.00000  Uiso   1.00
O32    O     0.03449   0.59884   0.67569   0.00000  Uiso   1.00
H68    H     0.04079   0.59760   0.59611   0.00000  Uiso   1.00
H69    H     0.21572   0.75146   0.43530   0.00000  Uiso   1.00
O33    O     0.25579   0.79487   0.47131   0.00000  Uiso   1.00
O34    O     0.25265   0.79801   0.53901   0.00000  Uiso   1.00
H70    H     0.20924   0.75793   0.57501   0.00000  Uiso   1.00
C177   C     0.11041   0.63877   0.35802   0.00000  Uiso   1.00
C178   C     0.09097   0.61551   0.33473   0.00000  Uiso   1.00
C179   C     0.07126   0.59499   0.35523   0.00000  Uiso   1.00
C180   C     0.07058   0.59819   0.39864   0.00000  Uiso   1.00
H71    H     0.12572   0.65416   0.34291   0.00000  Uiso   1.00
O35    O     0.08988   0.61168   0.29972   0.00000  Uiso   1.00
O36    O     0.05664   0.57667   0.33463   0.00000  Uiso   1.00
H72    H     0.05541   0.58297   0.41420   0.00000  Uiso   1.00
Fe7    Fe    0.82646   0.55078   0.91597   0.00000  Uiso   1.00
Fe8    Fe    0.54588   0.13737   0.91599   0.00000  Uiso   1.00
Fe9    Fe    0.95927   0.27017   0.91598   0.00000  Uiso   1.00
Fe10   Fe    0.95934   0.55074   0.91598   0.00000  Uiso   1.00
Fe11   Fe    0.54591   0.27026   0.91599   0.00000  Uiso   1.00
Fe12   Fe    0.82637   0.13729   0.91599   0.00000  Uiso   1.00
C181   C     0.67550   0.11608   0.08397   0.00000  Uiso   1.00
C182   C     0.64768   0.10303   0.08832   0.00000  Uiso   1.00
C183   C     0.63458   0.07613   0.09706   0.00000  Uiso   1.00
C184   C     0.64906   0.06324   0.10114   0.00000  Uiso   1.00
C185   C     0.67645   0.07612   0.09706   0.00000  Uiso   1.00
C186   C     0.69025   0.10302   0.08832   0.00000  Uiso   1.00
H73    H     0.68548   0.13602   0.07747   0.00000  Uiso   1.00
O37    O     0.63238   0.11254   0.08534   0.00000  Uiso   1.00
O38    O     0.61003   0.06583   0.10052   0.00000  Uiso   1.00
H74    H     0.63908   0.04329   0.10761   0.00000  Uiso   1.00
O39    O     0.69068   0.06581   0.10053   0.00000  Uiso   1.00
O40    O     0.71507   0.11252   0.08535   0.00000  Uiso   1.00
C187   C     0.03339   0.44749   0.10112   0.00000  Uiso   1.00
C188   C     0.02050   0.42011   0.09704   0.00000  Uiso   1.00
C189   C     0.99360   0.40632   0.08830   0.00000  Uiso   1.00
C190   C     0.98055   0.42108   0.08395   0.00000  Uiso   1.00
C191   C     0.99361   0.44889   0.08830   0.00000  Uiso   1.00
C192   C     0.02051   0.46198   0.09704   0.00000  Uiso   1.00
H75    H     0.05335   0.45746   0.10760   0.00000  Uiso   1.00
O41    O     0.03080   0.40587   0.10050   0.00000  Uiso   1.00
O42    O     0.98408   0.38150   0.08532   0.00000  Uiso   1.00
H76    H     0.96060   0.41111   0.07744   0.00000  Uiso   1.00
O43    O     0.98411   0.46421   0.08532   0.00000  Uiso   1.00
O44    O     0.03082   0.48653   0.10051   0.00000  Uiso   1.00
C193   C     0.67557   0.42115   0.08396   0.00000  Uiso   1.00
C194   C     0.64776   0.40640   0.08831   0.00000  Uiso   1.00
C195   C     0.63465   0.42019   0.09705   0.00000  Uiso   1.00
C196   C     0.64915   0.44757   0.10113   0.00000  Uiso   1.00
C197   C     0.67653   0.46206   0.09705   0.00000  Uiso   1.00
C198   C     0.69033   0.44897   0.08831   0.00000  Uiso   1.00
H77    H     0.68555   0.41118   0.07746   0.00000  Uiso   1.00
O45    O     0.63244   0.38158   0.08534   0.00000  Uiso   1.00
O46    O     0.61011   0.40596   0.10052   0.00000  Uiso   1.00
H78    H     0.63917   0.45755   0.10761   0.00000  Uiso   1.00
O47    O     0.69077   0.48661   0.10052   0.00000  Uiso   1.00
O48    O     0.71515   0.46428   0.08533   0.00000  Uiso   1.00
Cu1    Cu    0.27720   0.31943   0.50516   0.00000  Uiso   1.00
Cu2    Cu    0.77720   0.81943   0.50517   0.00000  Uiso   1.00
Cu3    Cu    0.27721   0.81943   0.50516   0.00000  Uiso   1.00
C199   C     0.90534   0.57563   0.90919   0.00000  Uiso   1.00
C200   C     0.87796   0.56275   0.91327   0.00000  Uiso   1.00
C201   C     0.86416   0.53585   0.92201   0.00000  Uiso   1.00
C202   C     0.87891   0.52279   0.92636   0.00000  Uiso   1.00
C203   C     0.90672   0.53584   0.92201   0.00000  Uiso   1.00
C204   C     0.91983   0.56274   0.91327   0.00000  Uiso   1.00
H79    H     0.91533   0.59558   0.90271   0.00000  Uiso   1.00
O49    O     0.86373   0.57306   0.90980   0.00000  Uiso   1.00
O50    O     0.83934   0.52635   0.92498   0.00000  Uiso   1.00
H80    H     0.86893   0.50285   0.93286   0.00000  Uiso   1.00
O51    O     0.92203   0.52633   0.92499   0.00000  Uiso   1.00
O52    O     0.94437   0.57304   0.90981   0.00000  Uiso   1.00
C205   C     0.57386   0.21779   0.92638   0.00000  Uiso   1.00
C206   C     0.56080   0.18998   0.92203   0.00000  Uiso   1.00
C207   C     0.53390   0.17689   0.91329   0.00000  Uiso   1.00
C208   C     0.52101   0.19138   0.90921   0.00000  Uiso   1.00
C209   C     0.53391   0.21876   0.91329   0.00000  Uiso   1.00
C210   C     0.56081   0.23255   0.92203   0.00000  Uiso   1.00
H81    H     0.59381   0.22776   0.93289   0.00000  Uiso   1.00
O53    O     0.57030   0.17466   0.92501   0.00000  Uiso   1.00
O54    O     0.52359   0.15234   0.90982   0.00000  Uiso   1.00
H82    H     0.50106   0.18141   0.90273   0.00000  Uiso   1.00
O55    O     0.52361   0.23300   0.90982   0.00000  Uiso   1.00
O56    O     0.57032   0.25737   0.92501   0.00000  Uiso   1.00
C211   C     0.90526   0.19130   0.90920   0.00000  Uiso   1.00
C212   C     0.87788   0.17681   0.91328   0.00000  Uiso   1.00
C213   C     0.86408   0.18990   0.92202   0.00000  Uiso   1.00
C214   C     0.87884   0.21771   0.92637   0.00000  Uiso   1.00
C215   C     0.90665   0.23247   0.92202   0.00000  Uiso   1.00
C216   C     0.91975   0.21868   0.91328   0.00000  Uiso   1.00
H83    H     0.91524   0.18132   0.90272   0.00000  Uiso   1.00
O57    O     0.86364   0.15226   0.90981   0.00000  Uiso   1.00
O58    O     0.83926   0.17459   0.92500   0.00000  Uiso   1.00
H84    H     0.86886   0.22768   0.93287   0.00000  Uiso   1.00
O59    O     0.92196   0.25729   0.92499   0.00000  Uiso   1.00
O60    O     0.94430   0.23291   0.90981   0.00000  Uiso   1.00
C217   C     0.57717   0.07822   0.17039   0.00000  Uiso   1.00
C218   C     0.55594   0.05947   0.14823   0.00000  Uiso   1.00
C219   C     0.53297   0.04117   0.16866   0.00000  Uiso   1.00
C220   C     0.53079   0.04142   0.21001   0.00000  Uiso   1.00
C221   C     0.55171   0.06055   0.23132   0.00000  Uiso   1.00
C222   C     0.57465   0.07863   0.21138   0.00000  Uiso   1.00
O61    O     0.59707   0.09340   0.15024   0.00000  Uiso   1.00
O62    O     0.56020   0.06129   0.11140   0.00000  Uiso   1.00
H85    H     0.51716   0.02698   0.15274   0.00000  Uiso   1.00
O63    O     0.51174   0.02620   0.23193   0.00000  Uiso   1.00
O64    O     0.54710   0.05899   0.26771   0.00000  Uiso   1.00
H86    H     0.59038   0.09276   0.22750   0.00000  Uiso   1.00
Cu4    Cu    0.51591   0.03300   0.28343   0.00000  Uiso   1.00
C223   C     0.03716   0.35814   0.14822   0.00000  Uiso   1.00
C224   C     0.01841   0.36062   0.17037   0.00000  Uiso   1.00
C225   C     0.01800   0.35770   0.21137   0.00000  Uiso   1.00
C226   C     0.03607   0.35283   0.23130   0.00000  Uiso   1.00
C227   C     0.05521   0.35105   0.21000   0.00000  Uiso   1.00
C228   C     0.05546   0.35348   0.16865   0.00000  Uiso   1.00
O65    O     0.03534   0.36059   0.11139   0.00000  Uiso   1.00
O66    O     1.00323   0.36535   0.15022   0.00000  Uiso   1.00
H87    H     1.00386   0.35929   0.22748   0.00000  Uiso   1.00
O67    O     0.03764   0.34978   0.26769   0.00000  Uiso   1.00
O68    O     0.07043   0.34721   0.23192   0.00000  Uiso   1.00
H88    H     0.06965   0.35186   0.15273   0.00000  Uiso   1.00
Cu5    Cu    0.06363   0.34458   0.28342   0.00000  Uiso   1.00
C229   C     0.73602   0.51948   0.17038   0.00000  Uiso   1.00
C230   C     0.73850   0.54070   0.14823   0.00000  Uiso   1.00
C231   C     0.74316   0.56367   0.16865   0.00000  Uiso   1.00
C232   C     0.74559   0.56585   0.21000   0.00000  Uiso   1.00
C233   C     0.74382   0.54494   0.23131   0.00000  Uiso   1.00
C234   C     0.73895   0.52200   0.21137   0.00000  Uiso   1.00
O69    O     0.73131   0.49958   0.15023   0.00000  Uiso   1.00
O70    O     0.73605   0.53644   0.11139   0.00000  Uiso   1.00
H89    H     0.74478   0.57947   0.15273   0.00000  Uiso   1.00
O71    O     0.74943   0.58490   0.23192   0.00000  Uiso   1.00
O72    O     0.74686   0.54955   0.26770   0.00000  Uiso   1.00
H90    H     0.73736   0.50628   0.22749   0.00000  Uiso   1.00
Cu6    Cu    0.75206   0.58074   0.28342   0.00000  Uiso   1.00
C235   C     0.99435   0.34021   0.97967   0.00000  Uiso   1.00
C236   C     0.98005   0.31434   0.96405   0.00000  Uiso   1.00
C237   C     0.97223   0.29328   0.98981   0.00000  Uiso   1.00
C238   C     0.97352   0.29857   0.03064   0.00000  Uiso   1.00
C239   C     0.98511   0.32445   0.04627   0.00000  Uiso   1.00
C240   C     0.99835   0.34550   0.02050   0.00000  Uiso   1.00
H91    H     1.00224   0.35598   0.96036   0.00000  Uiso   1.00
O73    O     0.97375   0.30733   0.92852   0.00000  Uiso   1.00
O74    O     0.96398   0.27123   0.97269   0.00000  Uiso   1.00
H92    H     0.96564   0.28280   0.04995   0.00000  Uiso   1.00
O75    O     0.98581   0.33145   0.08180   0.00000  Uiso   1.00
O76    O     0.01215   0.36755   0.03762   0.00000  Uiso   1.00
C241   C     0.79808   0.53664   0.03064   0.00000  Uiso   1.00
C242   C     0.77220   0.52235   0.04627   0.00000  Uiso   1.00
C243   C     0.75113   0.51453   0.02051   0.00000  Uiso   1.00
C244   C     0.75642   0.51582   0.97968   0.00000  Uiso   1.00
C245   C     0.78230   0.52740   0.96405   0.00000  Uiso   1.00
C246   C     0.80336   0.54064   0.98981   0.00000  Uiso   1.00
H93    H     0.81385   0.54453   0.04995   0.00000  Uiso   1.00
O77    O     0.76520   0.51606   0.08180   0.00000  Uiso   1.00
O78    O     0.72908   0.50628   0.03763   0.00000  Uiso   1.00
H94    H     0.74065   0.50794   0.96037   0.00000  Uiso   1.00
O79    O     0.78930   0.52811   0.92852   0.00000  Uiso   1.00
O80    O     0.82541   0.55444   0.97269   0.00000  Uiso   1.00
C247   C     0.56001   0.12311   0.03065   0.00000  Uiso   1.00
C248   C     0.55602   0.12441   0.98982   0.00000  Uiso   1.00
C249   C     0.56925   0.11658   0.96406   0.00000  Uiso   1.00
C250   C     0.58082   0.10228   0.97969   0.00000  Uiso   1.00
C251   C     0.58212   0.09828   0.02052   0.00000  Uiso   1.00
C252   C     0.57430   0.11152   0.04629   0.00000  Uiso   1.00
H95    H     0.55213   0.13100   0.04996   0.00000  Uiso   1.00
O81    O     0.54222   0.13266   0.97270   0.00000  Uiso   1.00
O82    O     0.56855   0.12288   0.92853   0.00000  Uiso   1.00
H96    H     0.58871   0.09439   0.96038   0.00000  Uiso   1.00
O83    O     0.59036   0.08448   0.03764   0.00000  Uiso   1.00
O84    O     0.58059   0.11081   0.08181   0.00000  Uiso   1.00
C253   C     0.79799   0.12305   0.03065   0.00000  Uiso   1.00
C254   C     0.77211   0.11147   0.04629   0.00000  Uiso   1.00
C255   C     0.75105   0.09824   0.02052   0.00000  Uiso   1.00
C256   C     0.75633   0.10223   0.97969   0.00000  Uiso   1.00
C257   C     0.78221   0.11652   0.96406   0.00000  Uiso   1.00
C258   C     0.80327   0.12434   0.98982   0.00000  Uiso   1.00
H97    H     0.81376   0.13093   0.04996   0.00000  Uiso   1.00
O85    O     0.76511   0.11076   0.08181   0.00000  Uiso   1.00
O86    O     0.72899   0.08444   0.03765   0.00000  Uiso   1.00
H98    H     0.74056   0.09434   0.96038   0.00000  Uiso   1.00
O87    O     0.78921   0.12281   0.92853   0.00000  Uiso   1.00
O88    O     0.82533   0.13259   0.97270   0.00000  Uiso   1.00
C259   C     0.99440   0.51576   0.97967   0.00000  Uiso   1.00
C260   C     0.98011   0.52735   0.96404   0.00000  Uiso   1.00
C261   C     0.97229   0.54059   0.98981   0.00000  Uiso   1.00
C262   C     0.97358   0.53659   0.03064   0.00000  Uiso   1.00
C263   C     0.98516   0.52229   0.04627   0.00000  Uiso   1.00
C264   C     0.99839   0.51446   0.02050   0.00000  Uiso   1.00
H99    H     0.00228   0.50787   0.96036   0.00000  Uiso   1.00
O89    O     0.97381   0.52806   0.92852   0.00000  Uiso   1.00
O90    O     0.96405   0.55439   0.97269   0.00000  Uiso   1.00
H100   H     0.96570   0.54448   0.04995   0.00000  Uiso   1.00
O91    O     0.98586   0.51599   0.08180   0.00000  Uiso   1.00
O92    O     0.01219   0.50621   0.03763   0.00000  Uiso   1.00
C265   C     0.56006   0.29866   0.03066   0.00000  Uiso   1.00
C266   C     0.55606   0.29337   0.98983   0.00000  Uiso   1.00
C267   C     0.56930   0.31442   0.96406   0.00000  Uiso   1.00
C268   C     0.58088   0.34030   0.97969   0.00000  Uiso   1.00
C269   C     0.58218   0.34559   0.02052   0.00000  Uiso   1.00
C270   C     0.57436   0.32453   0.04628   0.00000  Uiso   1.00
H101   H     0.55217   0.28289   0.04997   0.00000  Uiso   1.00
O93    O     0.54225   0.27132   0.97271   0.00000  Uiso   1.00
O94    O     0.56859   0.30742   0.92853   0.00000  Uiso   1.00
H102   H     0.58877   0.35607   0.96038   0.00000  Uiso   1.00
O95    O     0.59043   0.36764   0.03764   0.00000  Uiso   1.00
O96    O     0.58065   0.33154   0.08181   0.00000  Uiso   1.00
C271   C     0.03720   0.54062   0.14822   0.00000  Uiso   1.00
C272   C     0.01845   0.51940   0.17038   0.00000  Uiso   1.00
C273   C     0.01804   0.52193   0.21137   0.00000  Uiso   1.00
C274   C     0.03612   0.54487   0.23130   0.00000  Uiso   1.00
C275   C     0.05526   0.56578   0.21000   0.00000  Uiso   1.00
C276   C     0.05551   0.56359   0.16865   0.00000  Uiso   1.00
O97    O     0.03539   0.53637   0.11139   0.00000  Uiso   1.00
O98    O     1.00326   0.49950   0.15022   0.00000  Uiso   1.00
H103   H     1.00390   0.50620   0.22749   0.00000  Uiso   1.00
O99    O     0.03769   0.54948   0.26769   0.00000  Uiso   1.00
O100   O     0.07048   0.58483   0.23192   0.00000  Uiso   1.00
H104   H     0.06970   0.57940   0.15273   0.00000  Uiso   1.00
Cu7    Cu    0.06368   0.58067   0.28342   0.00000  Uiso   1.00
C277   C     0.57724   0.36071   0.17039   0.00000  Uiso   1.00
C278   C     0.55601   0.35824   0.14823   0.00000  Uiso   1.00
C279   C     0.53304   0.35357   0.16866   0.00000  Uiso   1.00
C280   C     0.53086   0.35114   0.21001   0.00000  Uiso   1.00
C281   C     0.55178   0.35292   0.23131   0.00000  Uiso   1.00
C282   C     0.57472   0.35779   0.21138   0.00000  Uiso   1.00
O101   O     0.59714   0.36543   0.15024   0.00000  Uiso   1.00
O102   O     0.56027   0.36068   0.11140   0.00000  Uiso   1.00
H105   H     0.51723   0.35195   0.15274   0.00000  Uiso   1.00
O103   O     0.51181   0.34730   0.23193   0.00000  Uiso   1.00
O104   O     0.54717   0.34987   0.26770   0.00000  Uiso   1.00
H106   H     0.59045   0.35938   0.22750   0.00000  Uiso   1.00
Cu8    Cu    0.51597   0.34467   0.28343   0.00000  Uiso   1.00
C283   C     0.73593   0.07818   0.17039   0.00000  Uiso   1.00
C284   C     0.73840   0.05943   0.14824   0.00000  Uiso   1.00
C285   C     0.74306   0.04112   0.16866   0.00000  Uiso   1.00
C286   C     0.74550   0.04137   0.21001   0.00000  Uiso   1.00
C287   C     0.74373   0.06050   0.23132   0.00000  Uiso   1.00
C288   C     0.73886   0.07858   0.21139   0.00000  Uiso   1.00
O105   O     0.73122   0.09336   0.15025   0.00000  Uiso   1.00
O106   O     0.73596   0.06124   0.11140   0.00000  Uiso   1.00
H107   H     0.74468   0.02693   0.15273   0.00000  Uiso   1.00
O107   O     0.74933   0.02615   0.23193   0.00000  Uiso   1.00
O108   O     0.74677   0.05894   0.26771   0.00000  Uiso   1.00
H108   H     0.73727   0.09272   0.22751   0.00000  Uiso   1.00
Cu9    Cu    0.75197   0.03295   0.28343   0.00000  Uiso   1.00
C289   C     0.99839   0.28063   0.86210   0.00000  Uiso   1.00
C290   C     0.97717   0.27816   0.83994   0.00000  Uiso   1.00
C291   C     0.97968   0.28108   0.79895   0.00000  Uiso   1.00
C292   C     1.00263   0.28595   0.77902   0.00000  Uiso   1.00
C293   C     0.02354   0.28773   0.80032   0.00000  Uiso   1.00
C294   C     0.02137   0.28530   0.84167   0.00000  Uiso   1.00
O109   O     0.99414   0.27819   0.89893   0.00000  Uiso   1.00
O110   O     0.95726   0.27344   0.86009   0.00000  Uiso   1.00
H109   H     0.96395   0.27949   0.78283   0.00000  Uiso   1.00
O111   O     1.00724   0.28899   0.74263   0.00000  Uiso   1.00
O112   O     0.04260   0.29157   0.77840   0.00000  Uiso   1.00
H110   H     0.03718   0.28692   0.85759   0.00000  Uiso   1.00
Cu10   Cu    0.03843   0.29420   0.72690   0.00000  Uiso   1.00
C295   C     0.81601   0.57945   0.86210   0.00000  Uiso   1.00
C296   C     0.81847   0.56069   0.83994   0.00000  Uiso   1.00
C297   C     0.81555   0.56029   0.79895   0.00000  Uiso   1.00
C298   C     0.81068   0.57837   0.77901   0.00000  Uiso   1.00
C299   C     0.80891   0.59750   0.80032   0.00000  Uiso   1.00
C300   C     0.81134   0.59775   0.84167   0.00000  Uiso   1.00
O113   O     0.81845   0.57763   0.89893   0.00000  Uiso   1.00
O114   O     0.82319   0.54551   0.86009   0.00000  Uiso   1.00
H111   H     0.81713   0.54615   0.78282   0.00000  Uiso   1.00
O115   O     0.80764   0.57993   0.74262   0.00000  Uiso   1.00
O116   O     0.80508   0.61272   0.77840   0.00000  Uiso   1.00
H112   H     0.80973   0.61194   0.85760   0.00000  Uiso   1.00
Cu11   Cu    0.80244   0.60592   0.72690   0.00000  Uiso   1.00
C301   C     0.53596   0.11947   0.83995   0.00000  Uiso   1.00
C302   C     0.51720   0.09825   0.86211   0.00000  Uiso   1.00
C303   C     0.49889   0.07528   0.84168   0.00000  Uiso   1.00
C304   C     0.49915   0.07309   0.80033   0.00000  Uiso   1.00
C305   C     0.51829   0.09400   0.77903   0.00000  Uiso   1.00
C306   C     0.53636   0.11694   0.79896   0.00000  Uiso   1.00
O117   O     0.55114   0.13937   0.86010   0.00000  Uiso   1.00
O118   O     0.51902   0.10250   0.89894   0.00000  Uiso   1.00
H113   H     0.48470   0.05947   0.85760   0.00000  Uiso   1.00
O119   O     0.48393   0.05404   0.77841   0.00000  Uiso   1.00
O120   O     0.51672   0.08939   0.74264   0.00000  Uiso   1.00
H114   H     0.55050   0.13267   0.78284   0.00000  Uiso   1.00
Cu12   Cu    0.49073   0.05820   0.72691   0.00000  Uiso   1.00
C307   C     0.81591   0.09817   0.86210   0.00000  Uiso   1.00
C308   C     0.81838   0.11939   0.83995   0.00000  Uiso   1.00
C309   C     0.81545   0.11687   0.79896   0.00000  Uiso   1.00
C310   C     0.81059   0.09393   0.77902   0.00000  Uiso   1.00
C311   C     0.80881   0.07302   0.80033   0.00000  Uiso   1.00
C312   C     0.81125   0.07520   0.84168   0.00000  Uiso   1.00
O121   O     0.81835   0.10243   0.89894   0.00000  Uiso   1.00
O122   O     0.82310   0.13929   0.86010   0.00000  Uiso   1.00
H115   H     0.81704   0.13260   0.78284   0.00000  Uiso   1.00
O123   O     0.80754   0.08932   0.74263   0.00000  Uiso   1.00
O124   O     0.80498   0.05397   0.77841   0.00000  Uiso   1.00
H116   H     0.80963   0.05940   0.85760   0.00000  Uiso   1.00
Cu13   Cu    0.80234   0.05813   0.72691   0.00000  Uiso   1.00
C313   C     0.99847   0.57940   0.86210   0.00000  Uiso   1.00
C314   C     0.97723   0.56065   0.83994   0.00000  Uiso   1.00
C315   C     0.97975   0.56024   0.79895   0.00000  Uiso   1.00
C316   C     1.00270   0.57832   0.77901   0.00000  Uiso   1.00
C317   C     0.02361   0.59745   0.80032   0.00000  Uiso   1.00
C318   C     0.02144   0.59770   0.84167   0.00000  Uiso   1.00
O125   O     0.99421   0.57758   0.89893   0.00000  Uiso   1.00
O126   O     0.95733   0.54547   0.86009   0.00000  Uiso   1.00
H117   H     0.96402   0.54611   0.78283   0.00000  Uiso   1.00
O127   O     1.00731   0.57988   0.74262   0.00000  Uiso   1.00
O128   O     0.04267   0.61267   0.77840   0.00000  Uiso   1.00
H118   H     0.03725   0.61189   0.85759   0.00000  Uiso   1.00
Cu14   Cu    0.03850   0.60587   0.72690   0.00000  Uiso   1.00
C319   C     0.53600   0.27825   0.83996   0.00000  Uiso   1.00
C320   C     0.51725   0.28073   0.86211   0.00000  Uiso   1.00
C321   C     0.49894   0.28539   0.84168   0.00000  Uiso   1.00
C322   C     0.49920   0.28782   0.80033   0.00000  Uiso   1.00
C323   C     0.51833   0.28604   0.77903   0.00000  Uiso   1.00
C324   C     0.53641   0.28117   0.79897   0.00000  Uiso   1.00
O129   O     0.55118   0.27352   0.86011   0.00000  Uiso   1.00
O130   O     0.51906   0.27828   0.89894   0.00000  Uiso   1.00
H119   H     0.48476   0.28701   0.85760   0.00000  Uiso   1.00
O131   O     0.48398   0.29166   0.77841   0.00000  Uiso   1.00
O132   O     0.51677   0.28909   0.74264   0.00000  Uiso   1.00
H120   H     0.55054   0.27958   0.78285   0.00000  Uiso   1.00
Cu15   Cu    0.49078   0.29429   0.72691   0.00000  Uiso   1.00
loop_
_geom_bond_atom_site_label_1
_geom_bond_atom_site_label_2
_geom_bond_distance
_geom_bond_site_symmetry_2
_ccdc_geom_bond_type
Fe1    O37     2.033   .     S
Fe1    O38     1.999   .     S
Fe1    O61     2.008   .     S
Fe1    O62     2.028   .     S
Fe1    O83     2.034   .     S
Fe1    O84     2.034   .     S
Fe2    O41     1.999   .     S
Fe2    O42     2.033   1_455 S
Fe2    O65     2.028   .     S
Fe2    O66     2.008   1_455 S
Fe2    O75     2.034   1_455 S
Fe2    O76     2.034   .     S
Fe3    O47     1.999   .     S
Fe3    O48     2.033   .     S
Fe3    O69     2.008   .     S
Fe3    O70     2.028   .     S
Fe3    O77     2.034   .     S
Fe3    O78     2.034   .     S
Fe4    O39     1.999   .     S
Fe4    O40     2.033   .     S
Fe4    O85     2.034   .     S
Fe4    O86     2.034   .     S
Fe4    O105    2.008   .     S
Fe4    O106    2.028   .     S
Fe5    O43     2.033   1_455 S
Fe5    O44     1.999   .     S
Fe5    O91     2.034   1_455 S
Fe5    O92     2.034   .     S
Fe5    O97     2.028   .     S
Fe5    O98     2.008   1_455 S
Fe6    O45     2.033   .     S
Fe6    O46     1.999   .     S
Fe6    O95     2.034   .     S
Fe6    O96     2.034   .     S
Fe6    O101    2.008   .     S
Fe6    O102    2.028   .     S
C1     C2      1.552   .     S
C1     C6      1.609   .     S
C1     C11     1.416   .     D
C2     C3      1.607   .     S
C2     C14     1.417   .     D
C3     C4      1.552   .     S
C3     C10     1.416   .     D
C4     C5      1.607   .     S
C4     C7      1.416   .     D
C5     C6      1.552   .     S
C5     C18     1.417   .     D
C6     C15     1.416   .     D
C7     C8      1.561   .     S
C7     H1      1.077   .     S
C8     C9      1.483   .     S
C8     C26     1.411   .     D
C9     C10     1.561   .     S
C9     C23     1.411   .     D
C10    H2      1.077   .     S
C11    C12     1.563   .     S
C11    H3      1.078   .     S
C12    C13     1.484   .     S
C12    C30     1.411   .     D
C13    C14     1.562   .     S
C13    C27     1.412   .     D
C14    H4      1.077   .     S
C15    C16     1.563   .     S
C15    H5      1.078   .     S
C16    C17     1.484   .     S
C16    C22     1.411   .     D
C17    C18     1.562   .     S
C17    C19     1.412   .     D
C18    H6      1.077   .     S
C19    C20     1.560   .     S
C19    H7      1.082   .     S
C20    C21     1.431   .     S
C20    O1      1.263   .     D
C21    C22     1.560   .     S
C21    O2      1.261   .     D
C22    H8      1.082   .     S
C23    C24     1.558   .     S
C23    H9      1.082   .     S
C24    C25     1.431   .     S
C24    O3      1.261   .     D
C25    C26     1.558   .     S
C25    O4      1.261   .     D
C26    H10     1.082   .     S
O1     Cu5     1.861   .     S
O2     Cu5     1.860   .     S
O3     Cu1     1.859   .     S
O4     Cu1     1.859   .     S
C27    C28     1.560   .     S
C27    H11     1.082   .     S
C28    C29     1.431   .     S
C28    O5      1.263   .     D
C29    C30     1.560   .     S
C29    O6      1.261   .     D
C30    H12     1.082   .     S
O5     Cu10    1.861   .     S
O6     Cu10    1.860   .     S
C31    C32     1.552   .     S
C31    C36     1.607   .     S
C31    C41     1.417   .     D
C32    C33     1.609   .     S
C32    C44     1.416   .     D
C33    C34     1.552   .     S
C33    C40     1.416   .     D
C34    C35     1.607   .     S
C34    C37     1.417   .     D
C35    C36     1.552   .     S
C35    C48     1.416   .     D
C36    C45     1.416   .     D
C37    C38     1.562   .     S
C37    H13     1.077   .     S
C38    C39     1.484   .     S
C38    C56     1.412   .     D
C39    C40     1.563   .     S
C39    C53     1.411   .     D
C40    H14     1.078   .     S
C41    C42     1.562   .     S
C41    H15     1.077   .     S
C42    C43     1.484   .     S
C42    C60     1.412   .     D
C43    C44     1.563   .     S
C43    C57     1.411   .     D
C44    H16     1.078   .     S
C45    C46     1.561   .     S
C45    H17     1.077   .     S
C46    C47     1.483   .     S
C46    C52     1.411   .     D
C47    C48     1.561   .     S
C47    C49     1.411   .     D
C48    H18     1.077   .     S
C49    C50     1.558   .     S
C49    H19     1.082   .     S
C50    C51     1.431   .     S
C50    O7      1.261   .     D
C51    C52     1.558   .     S
C51    O8      1.261   .     D
C52    H20     1.082   .     S
C53    C54     1.560   .     S
C53    H21     1.082   .     S
C54    C55     1.431   .     S
C54    O9      1.261   .     D
C55    C56     1.560   .     S
C55    O10     1.263   .     D
C56    H22     1.082   .     S
O7     Cu2     1.859   .     S
O8     Cu2     1.859   .     S
O9     Cu11    1.860   .     S
O10    Cu11    1.861   .     S
C57    C58     1.560   .     S
C57    H23     1.082   .     S
C58    C59     1.431   .     S
C58    O11     1.261   .     D
C59    C60     1.560   .     S
C59    O12     1.263   .     D
C60    H24     1.082   .     S
O11    Cu6     1.860   .     S
O12    Cu6     1.861   .     S
C61    C62     1.552   .     S
C61    C66     1.607   .     S
C61    C71     1.417   .     D
C62    C63     1.609   .     S
C62    C74     1.416   1_565 D
C63    C64     1.552   .     S
C63    C70     1.416   1_565 D
C64    C65     1.607   .     S
C64    C67     1.417   .     D
C65    C66     1.552   .     S
C65    C78     1.416   .     D
C66    C75     1.416   .     D
C67    C68     1.562   .     S
C67    H25     1.077   .     S
C68    C69     1.484   1_565 S
C68    C86     1.412   .     D
C69    C68     1.484   1_545 S
C69    C70     1.563   .     S
C69    C83     1.411   .     D
C70    C63     1.416   1_545 D
C70    H26     1.078   .     S
C71    C72     1.562   1_565 S
C71    H27     1.077   .     S
C72    C71     1.562   1_545 S
C72    C73     1.484   .     S
C72    C90     1.412   .     D
C73    C74     1.563   .     S
C73    C87     1.411   .     D
C74    C62     1.416   1_545 D
C74    H28     1.078   .     S
C75    C76     1.561   .     S
C75    H29     1.077   .     S
C76    C77     1.483   .     S
C76    C82     1.411   .     D
C77    C78     1.561   .     S
C77    C79     1.411   .     D
C78    H30     1.077   .     S
C79    C80     1.558   .     S
C79    H31     1.082   .     S
C80    C81     1.431   .     S
C80    O13     1.261   .     D
C81    C82     1.558   .     S
C81    O14     1.261   .     D
C82    H32     1.082   .     S
C83    C84     1.560   .     S
C83    H33     1.082   .     S
C84    C85     1.431   .     S
C84    O15     1.261   .     D
C85    C86     1.560   1_545 S
C85    O16     1.263   .     D
C86    C85     1.560   1_565 S
C86    H34     1.082   .     S
O13    Cu3     1.859   .     S
O14    Cu3     1.859   .     S
O15    Cu4     1.860   .     S
O16    Cu4     1.861   .     S
C87    C88     1.560   .     S
C87    H35     1.082   .     S
C88    C89     1.431   .     S
C88    O17     1.261   .     D
C89    C90     1.560   .     S
C89    O18     1.263   .     D
C90    H36     1.082   1_545 S
O17    Cu12    1.860   .     S
O18    Cu12    1.861   .     S
H36    C90     1.082   1_565 S
C91    C92     1.552   .     S
C91    C96     1.607   .     S
C91    C101    1.417   .     D
C92    C93     1.609   .     S
C92    C104    1.416   .     D
C93    C94     1.552   .     S
C93    C100    1.416   .     D
C94    C95     1.607   .     S
C94    C97     1.417   .     D
C95    C96     1.552   .     S
C95    C108    1.416   .     D
C96    C105    1.416   .     D
C97    C98     1.562   .     S
C97    H37     1.077   .     S
C98    C99     1.484   .     S
C98    C116    1.412   .     D
C99    C100    1.563   .     S
C99    C113    1.411   .     D
C100   H38     1.078   .     S
C101   C102    1.562   .     S
C101   H39     1.077   .     S
C102   C103    1.484   .     S
C102   C120    1.412   .     D
C103   C104    1.563   .     S
C103   C117    1.411   .     D
C104   H40     1.078   .     S
C105   C106    1.561   .     S
C105   H41     1.077   .     S
C106   C107    1.483   .     S
C106   C112    1.411   .     D
C107   C108    1.561   .     S
C107   C109    1.411   .     D
C108   H42     1.077   .     S
C109   C110    1.558   .     S
C109   H43     1.082   .     S
C110   C111    1.431   .     S
C110   O19     1.261   .     D
C111   C112    1.558   .     S
C111   O20     1.261   .     D
C112   H44     1.082   .     S
C113   C114    1.560   .     S
C113   H45     1.082   .     S
C114   C115    1.431   .     S
C114   O21     1.261   .     D
C115   C116    1.560   .     S
C115   O22     1.263   .     D
C116   H46     1.082   .     S
O19    Cu1     1.859   .     S
O20    Cu1     1.859   .     S
O21    Cu8     1.860   .     S
O22    Cu8     1.861   .     S
C117   C118    1.560   .     S
C117   H47     1.082   .     S
C118   C119    1.431   .     S
C118   O23     1.261   .     D
C119   C120    1.560   .     S
C119   O24     1.263   .     D
C120   H48     1.082   .     S
O23    Cu15    1.860   .     S
O24    Cu15    1.861   .     S
C121   C122    1.552   .     S
C121   C126    1.609   .     S
C121   C131    1.416   1_565 D
C122   C123    1.607   .     S
C122   C134    1.417   .     D
C123   C124    1.552   .     S
C123   C130    1.416   .     D
C124   C125    1.607   .     S
C124   C127    1.416   .     D
C125   C126    1.552   .     S
C125   C138    1.417   .     D
C126   C135    1.416   1_565 D
C127   C128    1.561   .     S
C127   H49     1.077   .     S
C128   C129    1.483   .     S
C128   C146    1.411   .     D
C129   C130    1.561   .     S
C129   C143    1.411   .     D
C130   H50     1.077   .     S
C131   C121    1.416   1_545 D
C131   C132    1.563   .     S
C131   H51     1.078   .     S
C132   C133    1.484   1_545 S
C132   C150    1.411   .     D
C133   C132    1.484   1_565 S
C133   C134    1.562   .     S
C133   C147    1.412   1_565 D
C134   H52     1.077   .     S
C135   C126    1.416   1_545 D
C135   C136    1.563   .     S
C135   H53     1.078   .     S
C136   C137    1.484   1_545 S
C136   C142    1.411   .     D
C137   C136    1.484   1_565 S
C137   C138    1.562   .     S
C137   C139    1.412   .     D
C138   H54     1.077   .     S
C139   C140    1.560   1_565 S
C139   H55     1.082   .     S
C140   C139    1.560   1_545 S
C140   C141    1.431   .     S
C140   O25     1.263   .     D
C141   C142    1.560   .     S
C141   O26     1.261   .     D
C142   H56     1.082   .     S
C143   C144    1.558   .     S
C143   H57     1.082   .     S
C144   C145    1.431   .     S
C144   O27     1.261   .     D
C145   C146    1.558   .     S
C145   O28     1.261   .     D
C146   H58     1.082   .     S
O25    Cu9     1.861   .     S
O26    Cu9     1.860   .     S
O27    Cu2     1.859   .     S
O28    Cu2     1.859   .     S
C147   C133    1.412   1_545 D
C147   C148    1.560   .     S
C147   H59     1.082   1_545 S
C148   C149    1.431   .     S
C148   O29     1.263   .     D
C149   C150    1.560   .     S
C149   O30     1.261   .     D
C150   H60     1.082   .     S
H59    C147    1.082   1_565 S
O29    Cu13    1.861   .     S
O30    Cu13    1.860   .     S
C151   C152    1.552   .     S
C151   C156    1.609   .     S
C151   C161    1.416   .     D
C152   C153    1.607   .     S
C152   C164    1.417   .     D
C153   C154    1.552   .     S
C153   C160    1.416   .     D
C154   C155    1.607   .     S
C154   C157    1.416   .     D
C155   C156    1.552   .     S
C155   C168    1.417   .     D
C156   C165    1.416   .     D
C157   C158    1.561   .     S
C157   H61     1.077   .     S
C158   C159    1.483   .     S
C158   C176    1.411   .     D
C159   C160    1.561   .     S
C159   C173    1.411   .     D
C160   H62     1.077   .     S
C161   C162    1.563   .     S
C161   H63     1.078   .     S
C162   C163    1.484   .     S
C162   C180    1.411   .     D
C163   C164    1.562   .     S
C163   C177    1.412   .     D
C164   H64     1.077   .     S
C165   C166    1.563   .     S
C165   H65     1.078   .     S
C166   C167    1.484   .     S
C166   C172    1.411   .     D
C167   C168    1.562   .     S
C167   C169    1.412   .     D
C168   H66     1.077   .     S
C169   C170    1.560   .     S
C169   H67     1.082   .     S
C170   C171    1.431   .     S
C170   O31     1.263   .     D
C171   C172    1.560   .     S
C171   O32     1.261   .     D
C172   H68     1.082   .     S
C173   C174    1.558   .     S
C173   H69     1.082   .     S
C174   C175    1.431   .     S
C174   O33     1.261   .     D
C175   C176    1.558   .     S
C175   O34     1.261   .     D
C176   H70     1.082   .     S
O31    Cu14    1.861   .     S
O32    Cu14    1.860   .     S
O33    Cu3     1.859   .     S
O34    Cu3     1.859   .     S
C177   C178    1.560   .     S
C177   H71     1.082   .     S
C178   C179    1.431   .     S
C178   O35     1.263   .     D
C179   C180    1.560   .     S
C179   O36     1.261   .     D
C180   H72     1.082   .     S
O35    Cu7     1.861   .     S
O36    Cu7     1.860   .     S
Fe7    O49     1.999   .     S
Fe7    O50     2.033   .     S
Fe7    O79     2.034   .     S
Fe7    O80     2.034   .     S
Fe7    O113    2.028   .     S
Fe7    O114    2.008   .     S
Fe8    O53     2.033   .     S
Fe8    O54     1.999   .     S
Fe8    O81     2.034   .     S
Fe8    O82     2.034   .     S
Fe8    O117    2.008   .     S
Fe8    O118    2.028   .     S
Fe9    O59     2.033   .     S
Fe9    O60     1.999   .     S
Fe9    O73     2.034   .     S
Fe9    O74     2.034   .     S
Fe9    O109    2.028   .     S
Fe9    O110    2.008   .     S
Fe10   O51     2.033   .     S
Fe10   O52     1.999   .     S
Fe10   O89     2.034   .     S
Fe10   O90     2.034   .     S
Fe10   O125    2.028   .     S
Fe10   O126    2.008   .     S
Fe11   O55     1.999   .     S
Fe11   O56     2.033   .     S
Fe11   O93     2.034   .     S
Fe11   O94     2.034   .     S
Fe11   O129    2.008   .     S
Fe11   O130    2.028   .     S
Fe12   O57     1.999   .     S
Fe12   O58     2.033   .     S
Fe12   O87     2.034   .     S
Fe12   O88     2.034   .     S
Fe12   O121    2.028   .     S
Fe12   O122    2.008   .     S
C181   C182    1.483   .     A
C181   C186    1.483   .     A
C181   H73     1.082   .     S
C182   C183    1.459   .     S
C182   O37     1.331   .     A
C183   C184    1.459   .     A
C183   O38     1.312   .     A
C184   C185    1.459   .     A
C184   H74     1.082   .     S
C185   C186    1.459   .     S
C185   O39     1.312   .     A
C186   O40     1.331   .     A
C187   C188    1.459   .     A
C187   C192    1.459   .     A
C187   H75     1.082   .     S
C188   C189    1.459   1_455 S
C188   O41     1.312   .     A
C189   C188    1.459   1_655 S
C189   C190    1.483   .     A
C189   O42     1.331   .     A
C190   C191    1.483   .     A
C190   H76     1.082   .     S
C191   C192    1.459   1_655 S
C191   O43     1.331   .     A
C192   C191    1.459   1_455 S
C192   O44     1.312   .     A
O42    Fe2     2.033   1_655 S
O43    Fe5     2.033   1_655 S
C193   C194    1.483   .     A
C193   C198    1.483   .     A
C193   H77     1.082   .     S
C194   C195    1.459   .     S
C194   O45     1.331   .     A
C195   C196    1.459   .     A
C195   O46     1.312   .     A
C196   C197    1.459   .     A
C196   H78     1.082   .     S
C197   C198    1.459   .     S
C197   O47     1.312   .     A
C198   O48     1.331   .     A
C199   C200    1.459   .     A
C199   C204    1.459   .     A
C199   H79     1.082   .     S
C200   C201    1.459   .     S
C200   O49     1.312   .     A
C201   C202    1.483   .     A
C201   O50     1.331   .     A
C202   C203    1.483   .     A
C202   H80     1.082   .     S
C203   C204    1.459   .     S
C203   O51     1.331   .     A
C204   O52     1.312   .     A
C205   C206    1.483   .     A
C205   C210    1.483   .     A
C205   H81     1.082   .     S
C206   C207    1.459   .     S
C206   O53     1.331   .     A
C207   C208    1.459   .     A
C207   O54     1.312   .     A
C208   C209    1.459   .     A
C208   H82     1.082   .     S
C209   C210    1.459   .     S
C209   O55     1.312   .     A
C210   O56     1.331   .     A
C211   C212    1.459   .     A
C211   C216    1.459   .     A
C211   H83     1.082   .     S
C212   C213    1.459   .     S
C212   O57     1.312   .     A
C213   C214    1.483   .     A
C213   O58     1.331   .     A
C214   C215    1.483   .     A
C214   H84     1.082   .     S
C215   C216    1.459   .     S
C215   O59     1.331   .     A
C216   O60     1.312   .     A
C217   C218    1.461   .     S
C217   C222    1.468   .     A
C217   O61     1.315   .     A
C218   C219    1.478   .     A
C218   O62     1.330   .     A
C219   C220    1.478   .     A
C219   H85     1.082   .     S
C220   C221    1.444   .     S
C220   O63     1.322   .     A
C221   C222    1.464   .     A
C221   O64     1.318   .     A
C222   H86     1.082   .     S
O63    Cu4     1.868   .     S
O64    Cu4     1.857   .     S
C223   C224    1.461   .     S
C223   C228    1.478   .     A
C223   O65     1.330   .     A
C224   C225    1.468   .     A
C224   O66     1.315   1_455 A
C225   C226    1.464   .     A
C225   H87     1.082   1_455 S
C226   C227    1.444   .     S
C226   O67     1.318   .     A
C227   C228    1.478   .     A
C227   O68     1.322   .     A
C228   H88     1.082   .     S
O66    C224    1.315   1_655 A
O66    Fe2     2.008   1_655 S
H87    C225    1.082   1_655 S
O67    Cu5     1.857   .     S
O68    Cu5     1.868   .     S
C229   C230    1.461   .     S
C229   C234    1.468   .     A
C229   O69     1.315   .     A
C230   C231    1.478   .     A
C230   O70     1.330   .     A
C231   C232    1.478   .     A
C231   H89     1.082   .     S
C232   C233    1.444   .     S
C232   O71     1.322   .     A
C233   C234    1.464   .     A
C233   O72     1.318   .     A
C234   H90     1.082   .     S
O71    Cu6     1.868   .     S
O72    Cu6     1.857   .     S
C235   C236    1.482   .     A
C235   C240    1.482   1_556 A
C235   H91     1.082   .     S
C236   C237    1.453   .     S
C236   O73     1.328   .     A
C237   C238    1.482   1_556 A
C237   O74     1.329   .     A
C238   C237    1.482   1_554 A
C238   C239    1.482   .     A
C238   H92     1.082   .     S
C239   C240    1.453   .     S
C239   O75     1.328   .     A
C240   C235    1.482   1_554 A
C240   O76     1.329   1_655 A
O75    Fe2     2.034   1_655 S
O76    C240    1.329   1_455 A
C241   C242    1.482   .     A
C241   C246    1.482   1_554 A
C241   H93     1.082   .     S
C242   C243    1.453   .     S
C242   O77     1.328   .     A
C243   C244    1.482   1_554 A
C243   O78     1.329   .     A
C244   C243    1.482   1_556 A
C244   C245    1.482   .     A
C244   H94     1.082   .     S
C245   C246    1.453   .     S
C245   O79     1.328   .     A
C246   C241    1.482   1_556 A
C246   O80     1.329   .     A
C247   C248    1.482   1_554 A
C247   C252    1.482   .     A
C247   H95     1.082   .     S
C248   C247    1.482   1_556 A
C248   C249    1.453   .     S
C248   O81     1.329   .     A
C249   C250    1.482   .     A
C249   O82     1.328   .     A
C250   C251    1.482   1_556 A
C250   H96     1.082   .     S
C251   C250    1.482   1_554 A
C251   C252    1.453   .     S
C251   O83     1.329   .     A
C252   O84     1.328   .     A
C253   C254    1.482   .     A
C253   C258    1.482   1_554 A
C253   H97     1.082   .     S
C254   C255    1.453   .     S
C254   O85     1.328   .     A
C255   C256    1.482   1_554 A
C255   O86     1.329   .     A
C256   C255    1.482   1_556 A
C256   C257    1.482   .     A
C256   H98     1.082   .     S
C257   C258    1.453   .     S
C257   O87     1.328   .     A
C258   C253    1.482   1_556 A
C258   O88     1.329   .     A
C259   C260    1.482   .     A
C259   C264    1.482   1_556 A
C259   H99     1.082   1_655 S
C260   C261    1.453   .     S
C260   O89     1.328   .     A
C261   C262    1.482   1_556 A
C261   O90     1.329   .     A
C262   C261    1.482   1_554 A
C262   C263    1.482   .     A
C262   H100    1.082   .     S
C263   C264    1.453   .     S
C263   O91     1.328   .     A
C264   C259    1.482   1_554 A
C264   O92     1.329   1_655 A
H99    C259    1.082   1_455 S
O91    Fe5     2.034   1_655 S
O92    C264    1.329   1_455 A
C265   C266    1.482   1_554 A
C265   C270    1.482   .     A
C265   H101    1.082   .     S
C266   C265    1.482   1_556 A
C266   C267    1.453   .     S
C266   O93     1.329   .     A
C267   C268    1.482   .     A
C267   O94     1.328   .     A
C268   C269    1.482   1_556 A
C268   H102    1.082   .     S
C269   C268    1.482   1_554 A
C269   C270    1.453   .     S
C269   O95     1.329   .     A
C270   O96     1.328   .     A
C271   C272    1.461   .     S
C271   C276    1.478   .     A
C271   O97     1.330   .     A
C272   C273    1.468   .     A
C272   O98     1.315   1_455 A
C273   C274    1.464   .     A
C273   H103    1.082   1_455 S
C274   C275    1.444   .     S
C274   O99     1.318   .     A
C275   C276    1.478   .     A
C275   O100    1.322   .     A
C276   H104    1.082   .     S
O98    C272    1.315   1_655 A
O98    Fe5     2.008   1_655 S
H103   C273    1.082   1_655 S
O99    Cu7     1.857   .     S
O100   Cu7     1.868   .     S
C277   C278    1.461   .     S
C277   C282    1.468   .     A
C277   O101    1.315   .     A
C278   C279    1.478   .     A
C278   O102    1.330   .     A
C279   C280    1.478   .     A
C279   H105    1.082   .     S
C280   C281    1.444   .     S
C280   O103    1.322   .     A
C281   C282    1.464   .     A
C281   O104    1.318   .     A
C282   H106    1.082   .     S
O103   Cu8     1.868   .     S
O104   Cu8     1.857   .     S
C283   C284    1.461   .     S
C283   C288    1.468   .     A
C283   O105    1.315   .     A
C284   C285    1.478   .     A
C284   O106    1.330   .     A
C285   C286    1.478   .     A
C285   H107    1.082   .     S
C286   C287    1.444   .     S
C286   O107    1.322   .     A
C287   C288    1.464   .     A
C287   O108    1.318   .     A
C288   H108    1.082   .     S
O107   Cu9     1.868   .     S
O108   Cu9     1.857   .     S
C289   C290    1.461   .     S
C289   C294    1.478   1_655 A
C289   O109    1.330   .     A
C290   C291    1.468   .     A
C290   O110    1.315   .     A
C291   C292    1.464   .     A
C291   H109    1.082   .     S
C292   C293    1.444   1_655 S
C292   O111    1.318   .     A
C293   C292    1.444   1_455 S
C293   C294    1.478   .     A
C293   O112    1.322   .     A
C294   C289    1.478   1_455 A
C294   H110    1.082   .     S
O111   Cu10    1.857   1_655 S
O112   Cu10    1.868   .     S
Cu10   O111    1.857   1_455 S
C295   C296    1.461   .     S
C295   C300    1.478   .     A
C295   O113    1.330   .     A
C296   C297    1.468   .     A
C296   O114    1.315   .     A
C297   C298    1.464   .     A
C297   H111    1.082   .     S
C298   C299    1.444   .     S
C298   O115    1.318   .     A
C299   C300    1.478   .     A
C299   O116    1.322   .     A
C300   H112    1.082   .     S
O115   Cu11    1.857   .     S
O116   Cu11    1.868   .     S
C301   C302    1.461   .     S
C301   C306    1.468   .     A
C301   O117    1.315   .     A
C302   C303    1.478   .     A
C302   O118    1.330   .     A
C303   C304    1.478   .     A
C303   H113    1.082   .     S
C304   C305    1.444   .     S
C304   O119    1.322   .     A
C305   C306    1.464   .     A
C305   O120    1.318   .     A
C306   H114    1.082   .     S
O119   Cu12    1.868   .     S
O120   Cu12    1.857   .     S
C307   C308    1.461   .     S
C307   C312    1.478   .     A
C307   O121    1.330   .     A
C308   C309    1.468   .     A
C308   O122    1.315   .     A
C309   C310    1.464   .     A
C309   H115    1.082   .     S
C310   C311    1.444   .     S
C310   O123    1.318   .     A
C311   C312    1.478   .     A
C311   O124    1.322   .     A
C312   H116    1.082   .     S
O123   Cu13    1.857   .     S
O124   Cu13    1.868   .     S
C313   C314    1.461   .     S
C313   C318    1.478   1_655 A
C313   O125    1.330   .     A
C314   C315    1.468   .     A
C314   O126    1.315   .     A
C315   C316    1.464   .     A
C315   H117    1.082   .     S
C316   C317    1.444   1_655 S
C316   O127    1.318   .     A
C317   C316    1.444   1_455 S
C317   C318    1.478   .     A
C317   O128    1.322   .     A
C318   C313    1.478   1_455 A
C318   H118    1.082   .     S
O127   Cu14    1.857   1_655 S
O128   Cu14    1.868   .     S
Cu14   O127    1.857   1_455 S
C319   C320    1.461   .     S
C319   C324    1.468   .     A
C319   O129    1.315   .     A
C320   C321    1.478   .     A
C320   O130    1.330   .     A
C321   C322    1.478   .     A
C321   H119    1.082   .     S
C322   C323    1.444   .     S
C322   O131    1.322   .     A
C323   C324    1.464   .     A
C323   O132    1.318   .     A
C324   H120    1.082   .     S
O131   Cu15    1.868   .     S
O132   Cu15    1.857   .     S
