data_etb_Feoct_B_Cupln_spacer_DHBQ
_audit_creation_date              2023-08-06
_audit_creation_method            'Materials Studio'
_symmetry_space_group_name_H-M    'P1'
_symmetry_Int_Tables_number       1
_symmetry_cell_setting            triclinic
loop_
_symmetry_equiv_pos_as_xyz
  x,y,z
_cell_length_a                    43.1504
_cell_length_b                    43.1652
_cell_length_c                    25.9706
_cell_angle_alpha                 89.9859
_cell_angle_beta                  90.0221
_cell_angle_gamma                 120.0540
loop_
_atom_site_label
_atom_site_type_symbol
_atom_site_fract_x
_atom_site_fract_y
_atom_site_fract_z
_atom_site_U_iso_or_equiv
_atom_site_adp_type
_atom_site_occupancy
Fe1    Fe    0.45471   0.02080   0.08987   0.00000  Uiso   1.00
Fe2    Fe    0.00725   0.39048   0.08986   0.00000  Uiso   1.00
Fe3    Fe    0.63758   0.57339   0.08990   0.00000  Uiso   1.00
Fe4    Fe    0.63753   0.02072   0.08987   0.00000  Uiso   1.00
Fe5    Fe    0.00720   0.57326   0.08985   0.00000  Uiso   1.00
Fe6    Fe    0.45462   0.39041   0.08989   0.00000  Uiso   1.00
C1     C     0.10697   0.32063   0.52373   0.00000  Uiso   1.00
C2     C     0.14008   0.32465   0.49430   0.00000  Uiso   1.00
C3     C     0.14362   0.33174   0.43802   0.00000  Uiso   1.00
C4     C     0.11453   0.33577   0.40858   0.00000  Uiso   1.00
C5     C     0.08316   0.33267   0.43682   0.00000  Uiso   1.00
C6     C     0.07870   0.32372   0.49549   0.00000  Uiso   1.00
O1     O     0.10041   0.31439   0.57057   0.00000  Uiso   1.00
O2     O     0.16550   0.32232   0.51271   0.00000  Uiso   1.00
O3     O     0.17136   0.33405   0.41961   0.00000  Uiso   1.00
O4     O     0.11421   0.34203   0.36176   0.00000  Uiso   1.00
O5     O     0.06287   0.33798   0.40862   0.00000  Uiso   1.00
O6     O     0.05308   0.31841   0.52368   0.00000  Uiso   1.00
C7     C     0.69536   0.70709   0.43684   0.00000  Uiso   1.00
C8     C     0.70430   0.71156   0.49551   0.00000  Uiso   1.00
C9     C     0.70741   0.74292   0.52375   0.00000  Uiso   1.00
C10    C     0.70336   0.77200   0.49432   0.00000  Uiso   1.00
C11    C     0.69628   0.76845   0.43803   0.00000  Uiso   1.00
C12    C     0.69225   0.73534   0.40859   0.00000  Uiso   1.00
O7     O     0.69005   0.68149   0.40865   0.00000  Uiso   1.00
O8     O     0.70962   0.69127   0.52371   0.00000  Uiso   1.00
O9     O     0.71366   0.74260   0.57058   0.00000  Uiso   1.00
O10    O     0.70568   0.79973   0.51272   0.00000  Uiso   1.00
O11    O     0.69394   0.79386   0.41962   0.00000  Uiso   1.00
O12    O     0.68601   0.72878   0.36176   0.00000  Uiso   1.00
C13    C     0.31653   0.94938   0.49550   0.00000  Uiso   1.00
C14    C     0.32101   0.94491   0.43684   0.00000  Uiso   1.00
C15    C     0.29272   0.91353   0.40860   0.00000  Uiso   1.00
C16    C     0.25958   0.88441   0.43802   0.00000  Uiso   1.00
C17    C     0.25604   0.88795   0.49430   0.00000  Uiso   1.00
C18    C     0.28515   0.92109   0.52373   0.00000  Uiso   1.00
O13    O     0.33684   0.97501   0.52370   0.00000  Uiso   1.00
O14    O     0.34663   0.96522   0.40864   0.00000  Uiso   1.00
O15    O     0.29928   0.91384   0.36177   0.00000  Uiso   1.00
O16    O     0.23415   0.85666   0.41961   0.00000  Uiso   1.00
O17    O     0.22829   0.86251   0.51271   0.00000  Uiso   1.00
O18    O     0.28546   0.92765   0.57056   0.00000  Uiso   1.00
C19    C     0.31647   0.32369   0.49551   0.00000  Uiso   1.00
C20    C     0.32094   0.33264   0.43684   0.00000  Uiso   1.00
C21    C     0.29267   0.33573   0.40859   0.00000  Uiso   1.00
C22    C     0.25955   0.33171   0.43802   0.00000  Uiso   1.00
C23    C     0.25601   0.32462   0.49431   0.00000  Uiso   1.00
C24    C     0.28510   0.32059   0.52374   0.00000  Uiso   1.00
O19    O     0.33676   0.31838   0.52370   0.00000  Uiso   1.00
O20    O     0.34655   0.33795   0.40865   0.00000  Uiso   1.00
O21    O     0.29923   0.34198   0.36176   0.00000  Uiso   1.00
O22    O     0.23413   0.33403   0.41962   0.00000  Uiso   1.00
O23    O     0.22827   0.32231   0.51271   0.00000  Uiso   1.00
O24    O     0.28542   0.31433   0.57057   0.00000  Uiso   1.00
C25    C     0.70736   0.92100   0.52374   0.00000  Uiso   1.00
C26    C     0.70333   0.88789   0.49431   0.00000  Uiso   1.00
C27    C     0.69625   0.88435   0.43802   0.00000  Uiso   1.00
C28    C     0.69221   0.91343   0.40858   0.00000  Uiso   1.00
C29    C     0.69532   0.94479   0.43682   0.00000  Uiso   1.00
C30    C     0.70426   0.94926   0.49549   0.00000  Uiso   1.00
O25    O     0.71361   0.92757   0.57057   0.00000  Uiso   1.00
O26    O     0.70566   0.86248   0.51271   0.00000  Uiso   1.00
O27    O     0.69393   0.85661   0.41961   0.00000  Uiso   1.00
O28    O     0.68595   0.91374   0.36175   0.00000  Uiso   1.00
O29    O     0.69001   0.96508   0.40863   0.00000  Uiso   1.00
O30    O     0.70957   0.97486   0.52368   0.00000  Uiso   1.00
C31    C     0.11448   0.73526   0.40859   0.00000  Uiso   1.00
C32    C     0.14359   0.76840   0.43802   0.00000  Uiso   1.00
C33    C     0.14005   0.77194   0.49430   0.00000  Uiso   1.00
C34    C     0.10691   0.74283   0.52372   0.00000  Uiso   1.00
C35    C     0.07862   0.71144   0.49549   0.00000  Uiso   1.00
C36    C     0.08309   0.70697   0.43682   0.00000  Uiso   1.00
O31    O     0.11416   0.72869   0.36176   0.00000  Uiso   1.00
O32    O     0.17134   0.79383   0.41961   0.00000  Uiso   1.00
O33    O     0.16549   0.79969   0.51270   0.00000  Uiso   1.00
O34    O     0.10036   0.74251   0.57055   0.00000  Uiso   1.00
O35    O     0.05300   0.69114   0.52368   0.00000  Uiso   1.00
O36    O     0.06279   0.68134   0.40863   0.00000  Uiso   1.00
Fe7    Fe    0.76211   0.63565   0.84247   0.00000  Uiso   1.00
Fe8    Fe    0.39242   0.08308   0.84248   0.00000  Uiso   1.00
Fe9    Fe    0.94500   0.26594   0.84243   0.00000  Uiso   1.00
Fe10   Fe    0.94493   0.63557   0.84246   0.00000  Uiso   1.00
Fe11   Fe    0.39237   0.26587   0.84247   0.00000  Uiso   1.00
Fe12   Fe    0.76205   0.08296   0.84243   0.00000  Uiso   1.00
C37    C     0.56605   0.06052   0.07538   0.00000  Uiso   1.00
C38    C     0.52733   0.04207   0.08237   0.00000  Uiso   1.00
C39    C     0.50885   0.00420   0.09681   0.00000  Uiso   1.00
C40    C     0.52871   0.98604   0.10381   0.00000  Uiso   1.00
C41    C     0.56677   0.00417   0.09681   0.00000  Uiso   1.00
C42    C     0.58625   0.04204   0.08237   0.00000  Uiso   1.00
H1     H     0.58008   0.08851   0.06469   0.00000  Uiso   1.00
O37    O     0.50619   0.05562   0.07713   0.00000  Uiso   1.00
O38    O     0.47451   0.98947   0.10233   0.00000  Uiso   1.00
H2     H     0.51468   0.95804   0.11450   0.00000  Uiso   1.00
O39    O     0.58633   0.98942   0.10234   0.00000  Uiso   1.00
O40    O     0.62096   0.05556   0.07713   0.00000  Uiso   1.00
C43    C     0.04195   0.49926   0.10380   0.00000  Uiso   1.00
C44    C     0.02381   0.46121   0.09680   0.00000  Uiso   1.00
C45    C     0.98593   0.44175   0.08234   0.00000  Uiso   1.00
C46    C     0.96745   0.46195   0.07534   0.00000  Uiso   1.00
C47    C     0.98591   0.50065   0.08234   0.00000  Uiso   1.00
C48    C     0.02380   0.51913   0.09679   0.00000  Uiso   1.00
H3     H     0.06997   0.51329   0.11449   0.00000  Uiso   1.00
O41    O     0.03857   0.44165   0.10233   0.00000  Uiso   1.00
O42    O     0.97239   0.40705   0.07710   0.00000  Uiso   1.00
H4     H     0.93945   0.44793   0.06465   0.00000  Uiso   1.00
O43    O     0.97236   0.52179   0.07709   0.00000  Uiso   1.00
O44    O     0.03854   0.55346   0.10232   0.00000  Uiso   1.00
C49    C     0.56599   0.46205   0.07543   0.00000  Uiso   1.00
C50    C     0.52727   0.44178   0.08240   0.00000  Uiso   1.00
C51    C     0.50883   0.46119   0.09683   0.00000  Uiso   1.00
C52    C     0.52874   0.49924   0.10381   0.00000  Uiso   1.00
C53    C     0.56680   0.51917   0.09683   0.00000  Uiso   1.00
C54    C     0.58623   0.50075   0.08241   0.00000  Uiso   1.00
H5     H     0.57998   0.44808   0.06476   0.00000  Uiso   1.00
O45    O     0.50610   0.40708   0.07717   0.00000  Uiso   1.00
O46    O     0.47448   0.44158   0.10234   0.00000  Uiso   1.00
H6     H     0.51473   0.51322   0.11448   0.00000  Uiso   1.00
O47    O     0.58640   0.55350   0.10234   0.00000  Uiso   1.00
O48    O     0.62095   0.52194   0.07718   0.00000  Uiso   1.00
Cu1    Cu    0.19981   0.32817   0.46616   0.00000  Uiso   1.00
Cu2    Cu    0.69980   0.82817   0.46617   0.00000  Uiso   1.00
Cu3    Cu    0.19982   0.82817   0.46616   0.00000  Uiso   1.00
C55    C     0.87093   0.67033   0.82853   0.00000  Uiso   1.00
C56    C     0.83287   0.65220   0.83552   0.00000  Uiso   1.00
C57    C     0.81339   0.61433   0.84997   0.00000  Uiso   1.00
C58    C     0.83359   0.59585   0.85696   0.00000  Uiso   1.00
C59    C     0.87231   0.61430   0.84997   0.00000  Uiso   1.00
C60    C     0.89080   0.65217   0.83553   0.00000  Uiso   1.00
H7     H     0.88496   0.69833   0.81785   0.00000  Uiso   1.00
O49    O     0.81331   0.66695   0.83000   0.00000  Uiso   1.00
O50    O     0.77868   0.60080   0.85521   0.00000  Uiso   1.00
H8     H     0.81956   0.56786   0.86765   0.00000  Uiso   1.00
O51    O     0.89345   0.60075   0.85521   0.00000  Uiso   1.00
O52    O     0.92514   0.66690   0.83001   0.00000  Uiso   1.00
C61    C     0.43217   0.19439   0.85699   0.00000  Uiso   1.00
C62    C     0.41370   0.15569   0.85000   0.00000  Uiso   1.00
C63    C     0.37582   0.13721   0.83554   0.00000  Uiso   1.00
C64    C     0.35766   0.15708   0.82854   0.00000  Uiso   1.00
C65    C     0.37580   0.19513   0.83554   0.00000  Uiso   1.00
C66    C     0.41369   0.21459   0.84999   0.00000  Uiso   1.00
H9     H     0.46017   0.20841   0.86769   0.00000  Uiso   1.00
O53    O     0.42725   0.13455   0.85524   0.00000  Uiso   1.00
O54    O     0.36108   0.10288   0.83002   0.00000  Uiso   1.00
H10    H     0.32964   0.14305   0.81785   0.00000  Uiso   1.00
O55    O     0.36105   0.21469   0.83000   0.00000  Uiso   1.00
O56    O     0.42722   0.24929   0.85523   0.00000  Uiso   1.00
C67    C     0.87089   0.15711   0.82851   0.00000  Uiso   1.00
C68    C     0.83283   0.13718   0.83549   0.00000  Uiso   1.00
C69    C     0.81340   0.15560   0.84992   0.00000  Uiso   1.00
C70    C     0.83364   0.19430   0.85690   0.00000  Uiso   1.00
C71    C     0.87236   0.21457   0.84992   0.00000  Uiso   1.00
C72    C     0.89080   0.19516   0.83549   0.00000  Uiso   1.00
H11    H     0.88489   0.14313   0.81783   0.00000  Uiso   1.00
O57    O     0.81323   0.10285   0.82998   0.00000  Uiso   1.00
O58    O     0.77868   0.13441   0.85515   0.00000  Uiso   1.00
H12    H     0.81965   0.20828   0.86757   0.00000  Uiso   1.00
O59    O     0.89353   0.24927   0.85515   0.00000  Uiso   1.00
O60    O     0.92515   0.21478   0.82998   0.00000  Uiso   1.00
C73    C     0.42920   0.01084   0.19065   0.00000  Uiso   1.00
C74    C     0.39969   0.98272   0.16079   0.00000  Uiso   1.00
C75    C     0.36741   0.95720   0.18795   0.00000  Uiso   1.00
C76    C     0.36397   0.95980   0.24325   0.00000  Uiso   1.00
C77    C     0.39256   0.98887   0.27165   0.00000  Uiso   1.00
C78    C     0.42501   0.01387   0.24534   0.00000  Uiso   1.00
O61    O     0.45769   0.03153   0.16398   0.00000  Uiso   1.00
O62    O     0.40587   0.98341   0.11117   0.00000  Uiso   1.00
H13    H     0.34564   0.93582   0.16668   0.00000  Uiso   1.00
O63    O     0.33712   0.93857   0.27268   0.00000  Uiso   1.00
O64    O     0.38533   0.98880   0.32036   0.00000  Uiso   1.00
H14    H     0.44665   0.03515   0.26695   0.00000  Uiso   1.00
Cu4    Cu    0.34207   0.95162   0.34083   0.00000  Uiso   1.00
C79    C     0.04535   0.37359   0.16078   0.00000  Uiso   1.00
C80    C     0.01722   0.37491   0.19064   0.00000  Uiso   1.00
C81    C     0.01419   0.36767   0.24532   0.00000  Uiso   1.00
C82    C     0.03921   0.36025   0.27164   0.00000  Uiso   1.00
C83    C     0.06827   0.36077   0.24323   0.00000  Uiso   1.00
C84    C     0.07087   0.36686   0.18793   0.00000  Uiso   1.00
O65    O     0.04466   0.37911   0.11116   0.00000  Uiso   1.00
O66    O     0.99652   0.38268   0.16396   0.00000  Uiso   1.00
H15    H     0.99292   0.36799   0.26693   0.00000  Uiso   1.00
O67    O     0.03928   0.35308   0.32034   0.00000  Uiso   1.00
O68    O     0.08949   0.35517   0.27266   0.00000  Uiso   1.00
H16    H     0.09225   0.36651   0.16666   0.00000  Uiso   1.00
Cu5    Cu    0.07645   0.34703   0.34081   0.00000  Uiso   1.00
C85    C     0.65314   0.59893   0.19067   0.00000  Uiso   1.00
C86    C     0.65450   0.62839   0.16079   0.00000  Uiso   1.00
C87    C     0.66124   0.66064   0.18793   0.00000  Uiso   1.00
C88    C     0.66730   0.66411   0.24323   0.00000  Uiso   1.00
C89    C     0.66780   0.63557   0.27166   0.00000  Uiso   1.00
C90    C     0.66038   0.60315   0.24536   0.00000  Uiso   1.00
O69    O     0.64536   0.57046   0.16401   0.00000  Uiso   1.00
O70    O     0.64900   0.62219   0.11117   0.00000  Uiso   1.00
H17    H     0.66160   0.68238   0.16664   0.00000  Uiso   1.00
O71    O     0.67290   0.69094   0.27266   0.00000  Uiso   1.00
O72    O     0.67495   0.64281   0.32037   0.00000  Uiso   1.00
H18    H     0.66003   0.58154   0.26699   0.00000  Uiso   1.00
Cu6    Cu    0.68101   0.68603   0.34083   0.00000  Uiso   1.00
C91    C     0.99249   0.35937   0.93378   0.00000  Uiso   1.00
C92    C     0.97272   0.32412   0.91039   0.00000  Uiso   1.00
C93    C     0.96119   0.29270   0.94300   0.00000  Uiso   1.00
C94    C     0.96133   0.29705  -0.00149   0.00000  Uiso   1.00
C95    C     0.97679   0.33230   0.02189   0.00000  Uiso   1.00
C96    C     0.99669   0.36373   0.98929   0.00000  Uiso   1.00
H19    H     1.00423   0.38285   0.90939   0.00000  Uiso   1.00
O73    O     0.96469   0.31691   0.86162   0.00000  Uiso   1.00
O74    O     0.95047   0.26277   0.91780   0.00000  Uiso   1.00
H20    H     0.94958   0.27357   0.02289   0.00000  Uiso   1.00
O75    O     0.97595   0.33949   0.07065   0.00000  Uiso   1.00
O76    O     0.01590   0.39367   1.01450   0.00000  Uiso   1.00
C97    C     0.73103   0.62090  -0.00146   0.00000  Uiso   1.00
C98    C     0.69577   0.60112   0.02194   0.00000  Uiso   1.00
C99    C     0.66433   0.58957   0.98932   0.00000  Uiso   1.00
C100   C     0.66867   0.58972   0.93382   0.00000  Uiso   1.00
C101   C     0.70393   0.60519   0.91043   0.00000  Uiso   1.00
C102   C     0.73537   0.62509   0.94304   0.00000  Uiso   1.00
H21    H     0.75452   0.63264   0.02293   0.00000  Uiso   1.00
O77    O     0.68857   0.59310   0.07071   0.00000  Uiso   1.00
O78    O     0.63439   0.57884   1.01453   0.00000  Uiso   1.00
H22    H     0.64518   0.57797   0.90944   0.00000  Uiso   1.00
O79    O     0.71112   0.60436   0.86167   0.00000  Uiso   1.00
O80    O     0.76532   0.64430   0.91782   0.00000  Uiso   1.00
C103   C     0.40723   0.06673   0.99855   0.00000  Uiso   1.00
C104   C     0.40300   0.06689   0.94305   0.00000  Uiso   1.00
C105   C     0.42289   0.05539   0.91043   0.00000  Uiso   1.00
C106   C     0.43835   0.03561   0.93381   0.00000  Uiso   1.00
C107   C     0.43850   0.03139   0.98931   0.00000  Uiso   1.00
C108   C     0.42701   0.05127   0.02193   0.00000  Uiso   1.00
H23    H     0.39551   0.07847   0.02295   0.00000  Uiso   1.00
O81    O     0.38378   0.07759   0.91785   0.00000  Uiso   1.00
O82    O     0.42372   0.06344   0.86167   0.00000  Uiso   1.00
H24    H     0.45008   0.02388   0.90941   0.00000  Uiso   1.00
O83    O     0.44921   0.01217   0.01451   0.00000  Uiso   1.00
O84    O     0.43507   0.05211   0.07069   0.00000  Uiso   1.00
C109   C     0.73096   0.06664  -0.00149   0.00000  Uiso   1.00
C110   C     0.69571   0.05117   0.02190   0.00000  Uiso   1.00
C111   C     0.66426   0.03127   0.98929   0.00000  Uiso   1.00
C112   C     0.66861   0.03546   0.93379   0.00000  Uiso   1.00
C113   C     0.70387   0.05523   0.91039   0.00000  Uiso   1.00
C114   C     0.73530   0.06678   0.94300   0.00000  Uiso   1.00
H25    H     0.75446   0.07839   0.02289   0.00000  Uiso   1.00
O85    O     0.68852   0.05200   0.07066   0.00000  Uiso   1.00
O86    O     0.63432   0.01207   1.01451   0.00000  Uiso   1.00
H26    H     0.64511   0.02372   0.90940   0.00000  Uiso   1.00
O87    O     0.71106   0.06325   0.86162   0.00000  Uiso   1.00
O88    O     0.76524   0.07751   0.91779   0.00000  Uiso   1.00
C115   C     0.99241   0.58963   0.93378   0.00000  Uiso   1.00
C116   C     0.97263   0.60509   0.91040   0.00000  Uiso   1.00
C117   C     0.96113   0.62497   0.94303   0.00000  Uiso   1.00
C118   C     0.96128   0.62075  -0.00147   0.00000  Uiso   1.00
C119   C     0.97673   0.60096   0.02190   0.00000  Uiso   1.00
C120   C     0.99662   0.58946   0.98928   0.00000  Uiso   1.00
H27    H     0.00413   0.57790   0.90938   0.00000  Uiso   1.00
O89    O     0.96457   0.60426   0.86164   0.00000  Uiso   1.00
O90    O     0.95043   0.64420   0.91783   0.00000  Uiso   1.00
H28    H     0.94954   0.63246   0.02293   0.00000  Uiso   1.00
O91    O     0.97589   0.59290   0.07066   0.00000  Uiso   1.00
O92    O     0.01584   0.57875   0.01449   0.00000  Uiso   1.00
C121   C     0.40713   0.29698  -0.00145   0.00000  Uiso   1.00
C122   C     0.40293   0.29262   0.94305   0.00000  Uiso   1.00
C123   C     0.42283   0.32405   0.91044   0.00000  Uiso   1.00
C124   C     0.43829   0.35929   0.93382   0.00000  Uiso   1.00
C125   C     0.43844   0.36365   0.98932   0.00000  Uiso   1.00
C126   C     0.42690   0.33223   0.02194   0.00000  Uiso   1.00
H29    H     0.39539   0.27350   0.02294   0.00000  Uiso   1.00
O93    O     0.38372   0.26267   0.91783   0.00000  Uiso   1.00
O94    O     0.42367   0.31685   0.86168   0.00000  Uiso   1.00
H30    H     0.45004   0.38277   0.90943   0.00000  Uiso   1.00
O95    O     0.44916   0.39358   1.01452   0.00000  Uiso   1.00
O96    O     0.43493   0.33944   0.07071   0.00000  Uiso   1.00
C127   C     0.04530   0.62827   0.16078   0.00000  Uiso   1.00
C128   C     0.01716   0.59877   0.19063   0.00000  Uiso   1.00
C129   C     0.01413   0.60297   0.24532   0.00000  Uiso   1.00
C130   C     0.03914   0.63541   0.27163   0.00000  Uiso   1.00
C131   C     0.06821   0.66400   0.24323   0.00000  Uiso   1.00
C132   C     0.07082   0.66054   0.18794   0.00000  Uiso   1.00
O97    O     0.04460   0.62208   0.11116   0.00000  Uiso   1.00
O98    O     0.99647   0.57029   0.16396   0.00000  Uiso   1.00
H31    H     0.99285   0.58133   0.26692   0.00000  Uiso   1.00
O99    O     0.03921   0.64265   0.32034   0.00000  Uiso   1.00
O100   O     0.08944   0.69084   0.27267   0.00000  Uiso   1.00
H32    H     0.09220   0.68230   0.16667   0.00000  Uiso   1.00
Cu7    Cu    0.07638   0.68590   0.34082   0.00000  Uiso   1.00
C133   C     0.42910   0.37486   0.19067   0.00000  Uiso   1.00
C134   C     0.39961   0.37348   0.16078   0.00000  Uiso   1.00
C135   C     0.36735   0.36673   0.18793   0.00000  Uiso   1.00
C136   C     0.36389   0.36069   0.24323   0.00000  Uiso   1.00
C137   C     0.39246   0.36020   0.27166   0.00000  Uiso   1.00
C138   C     0.42489   0.36764   0.24536   0.00000  Uiso   1.00
O101   O     0.45758   0.38265   0.16400   0.00000  Uiso   1.00
O102   O     0.40580   0.37897   0.11116   0.00000  Uiso   1.00
H33    H     0.34560   0.36635   0.16665   0.00000  Uiso   1.00
O103   O     0.33706   0.35508   0.27266   0.00000  Uiso   1.00
O104   O     0.38522   0.35305   0.32037   0.00000  Uiso   1.00
H34    H     0.44652   0.36800   0.26698   0.00000  Uiso   1.00
Cu8    Cu    0.34199   0.34698   0.34083   0.00000  Uiso   1.00
C139   C     0.65309   0.01074   0.19065   0.00000  Uiso   1.00
C140   C     0.65441   0.98261   0.16078   0.00000  Uiso   1.00
C141   C     0.66114   0.95710   0.18792   0.00000  Uiso   1.00
C142   C     0.66722   0.95969   0.24322   0.00000  Uiso   1.00
C143   C     0.66775   0.98875   0.27164   0.00000  Uiso   1.00
C144   C     0.66034   0.01376   0.24533   0.00000  Uiso   1.00
O105   O     0.64534   0.03144   0.16398   0.00000  Uiso   1.00
O106   O     0.64889   0.98331   0.11116   0.00000  Uiso   1.00
H35    H     0.66148   0.93572   0.16664   0.00000  Uiso   1.00
O107   O     0.67282   0.93847   0.27265   0.00000  Uiso   1.00
O108   O     0.67491   0.98866   0.32035   0.00000  Uiso   1.00
H36    H     0.66002   0.03502   0.26695   0.00000  Uiso   1.00
Cu9    Cu    0.68096   0.95150   0.34081   0.00000  Uiso   1.00
C145   C     1.00002   0.28287   0.77154   0.00000  Uiso   1.00
C146   C     0.97053   0.28149   0.74166   0.00000  Uiso   1.00
C147   C     0.97474   0.28872   0.68697   0.00000  Uiso   1.00
C148   C     0.00717   0.29615   0.66067   0.00000  Uiso   1.00
C149   C     0.03574   0.29567   0.68909   0.00000  Uiso   1.00
C150   C     0.03228   0.28962   0.74440   0.00000  Uiso   1.00
O109   O     0.99383   0.27738   0.82116   0.00000  Uiso   1.00
O110   O     0.94205   0.27370   0.76832   0.00000  Uiso   1.00
H37    H     0.95311   0.28836   0.66535   0.00000  Uiso   1.00
O111   O     0.01441   0.30331   0.61196   0.00000  Uiso   1.00
O112   O     0.06257   0.30128   0.65967   0.00000  Uiso   1.00
H38    H     0.05403   0.29000   0.76568   0.00000  Uiso   1.00
Cu10   Cu    0.05764   0.30938   0.59150   0.00000  Uiso   1.00
C151   C     0.74523   0.67375   0.77156   0.00000  Uiso   1.00
C152   C     0.74655   0.64562   0.74169   0.00000  Uiso   1.00
C153   C     0.73930   0.64261   0.68700   0.00000  Uiso   1.00
C154   C     0.73189   0.66761   0.66069   0.00000  Uiso   1.00
C155   C     0.73241   0.69666   0.68911   0.00000  Uiso   1.00
C156   C     0.73849   0.69926   0.74441   0.00000  Uiso   1.00
O113   O     0.75075   0.67305   0.82117   0.00000  Uiso   1.00
O114   O     0.75431   0.62493   0.76836   0.00000  Uiso   1.00
H39    H     0.73962   0.62134   0.66538   0.00000  Uiso   1.00
O115   O     0.72472   0.66769   0.61198   0.00000  Uiso   1.00
O116   O     0.72680   0.71789   0.65969   0.00000  Uiso   1.00
H40    H     0.73815   0.72063   0.76569   0.00000  Uiso   1.00
Cu11   Cu    0.71867   0.70485   0.59152   0.00000  Uiso   1.00
C157   C     0.38245   0.05757   0.74170   0.00000  Uiso   1.00
C158   C     0.35432   0.02807   0.77156   0.00000  Uiso   1.00
C159   C     0.32880   0.99580   0.74439   0.00000  Uiso   1.00
C160   C     0.33141   0.99235   0.68910   0.00000  Uiso   1.00
C161   C     0.36048   0.02093   0.66070   0.00000  Uiso   1.00
C162   C     0.38548   0.05338   0.68702   0.00000  Uiso   1.00
O117   O     0.40314   0.08606   0.76838   0.00000  Uiso   1.00
O118   O     0.35501   0.03426   0.82117   0.00000  Uiso   1.00
H41    H     0.30742   0.97404   0.76566   0.00000  Uiso   1.00
O119   O     0.31018   0.96550   0.65966   0.00000  Uiso   1.00
O120   O     0.36041   0.01370   0.61199   0.00000  Uiso   1.00
H42    H     0.40676   0.07501   0.66542   0.00000  Uiso   1.00
Cu12   Cu    0.32324   0.97044   0.59151   0.00000  Uiso   1.00
C163   C     0.74513   0.02796   0.77154   0.00000  Uiso   1.00
C164   C     0.74648   0.05742   0.74166   0.00000  Uiso   1.00
C165   C     0.73925   0.05320   0.68696   0.00000  Uiso   1.00
C166   C     0.73183   0.02078   0.66067   0.00000  Uiso   1.00
C167   C     0.73233   0.99223   0.68910   0.00000  Uiso   1.00
C168   C     0.73839   0.99571   0.74440   0.00000  Uiso   1.00
O121   O     0.75063   0.03416   0.82116   0.00000  Uiso   1.00
O122   O     0.75426   0.08589   0.76831   0.00000  Uiso   1.00
H43    H     0.73959   0.07481   0.66534   0.00000  Uiso   1.00
O123   O     0.72467   0.01354   0.61195   0.00000  Uiso   1.00
O124   O     0.72672   0.96540   0.65967   0.00000  Uiso   1.00
H44    H     0.73802   0.97398   0.76569   0.00000  Uiso   1.00
Cu13   Cu    0.71861   0.97032   0.59150   0.00000  Uiso   1.00
C169   C     0.99996   0.67365   0.77154   0.00000  Uiso   1.00
C170   C     0.97044   0.64553   0.74168   0.00000  Uiso   1.00
C171   C     0.97463   0.64250   0.68699   0.00000  Uiso   1.00
C172   C     0.00708   0.66750   0.66068   0.00000  Uiso   1.00
C173   C     0.03567   0.69656   0.68909   0.00000  Uiso   1.00
C174   C     0.03223   0.69917   0.74438   0.00000  Uiso   1.00
O125   O     0.99377   0.67296   0.82116   0.00000  Uiso   1.00
O126   O     0.94195   0.62484   0.76835   0.00000  Uiso   1.00
H45    H     0.95299   0.62123   0.66539   0.00000  Uiso   1.00
O127   O     0.01431   0.66757   0.61197   0.00000  Uiso   1.00
O128   O     0.06252   0.71779   0.65965   0.00000  Uiso   1.00
H46    H     0.05400   0.72055   0.76565   0.00000  Uiso   1.00
Cu14   Cu    0.05757   0.70474   0.59149   0.00000  Uiso   1.00
C175   C     0.38240   0.28143   0.74169   0.00000  Uiso   1.00
C176   C     0.35427   0.28275   0.77155   0.00000  Uiso   1.00
C177   C     0.32875   0.28949   0.74440   0.00000  Uiso   1.00
C178   C     0.33136   0.29558   0.68910   0.00000  Uiso   1.00
C179   C     0.36042   0.29609   0.66069   0.00000  Uiso   1.00
C180   C     0.38542   0.28868   0.68701   0.00000  Uiso   1.00
O129   O     0.40309   0.27366   0.76837   0.00000  Uiso   1.00
O130   O     0.35496   0.27723   0.82117   0.00000  Uiso   1.00
H47    H     0.30737   0.28984   0.76567   0.00000  Uiso   1.00
O131   O     0.31013   0.30119   0.65967   0.00000  Uiso   1.00
O132   O     0.36034   0.30327   0.61199   0.00000  Uiso   1.00
H48    H     0.40670   0.28835   0.66540   0.00000  Uiso   1.00
Cu15   Cu    0.32318   0.30932   0.59151   0.00000  Uiso   1.00
loop_
_geom_bond_atom_site_label_1
_geom_bond_atom_site_label_2
_geom_bond_distance
_geom_bond_site_symmetry_2
_ccdc_geom_bond_type
Fe1    O37     1.990   .     S
Fe1    O38     1.955   1_545 S
Fe1    O61     1.969   .     S
Fe1    O62     1.986   1_545 S
Fe1    O83     1.984   .     S
Fe1    O84     1.985   .     S
Fe2    O41     1.955   .     S
Fe2    O42     1.990   1_455 S
Fe2    O65     1.986   .     S
Fe2    O66     1.969   1_455 S
Fe2    O75     1.985   1_455 S
Fe2    O76     1.984   1_554 S
Fe3    O47     1.955   .     S
Fe3    O48     1.990   .     S
Fe3    O69     1.969   .     S
Fe3    O70     1.986   .     S
Fe3    O77     1.985   .     S
Fe3    O78     1.984   1_554 S
Fe4    O39     1.955   1_545 S
Fe4    O40     1.990   .     S
Fe4    O85     1.985   .     S
Fe4    O86     1.984   1_554 S
Fe4    O105    1.969   .     S
Fe4    O106    1.986   1_545 S
Fe5    O43     1.990   1_455 S
Fe5    O44     1.955   .     S
Fe5    O91     1.985   1_455 S
Fe5    O92     1.984   .     S
Fe5    O97     1.986   .     S
Fe5    O98     1.969   1_455 S
Fe6    O45     1.990   .     S
Fe6    O46     1.955   .     S
Fe6    O95     1.984   1_554 S
Fe6    O96     1.985   .     S
Fe6    O101    1.969   .     S
Fe6    O102    1.986   .     S
C1     C2      1.552   .     S
C1     C6      1.485   .     S
C1     O1      1.247   .     D
C2     C3      1.486   .     S
C2     O2      1.246   .     D
C3     C4      1.552   .     S
C3     O3      1.246   .     D
C4     C5      1.485   .     S
C4     O4      1.247   .     D
C5     C6      1.560   .     S
C5     O5      1.248   .     D
C6     O6      1.248   .     D
O1     Cu10    1.830   .     S
O2     Cu1     1.829   .     S
O3     Cu1     1.829   .     S
O4     Cu5     1.830   .     S
O5     Cu5     1.835   .     S
O6     Cu10    1.835   .     S
C7     C8      1.560   .     S
C7     C12     1.485   .     S
C7     O7      1.248   .     D
C8     C9      1.485   .     S
C8     O8      1.248   .     D
C9     C10     1.552   .     S
C9     O9      1.247   .     D
C10    C11     1.486   .     S
C10    O10     1.246   .     D
C11    C12     1.552   .     S
C11    O11     1.246   .     D
C12    O12     1.247   .     D
O7     Cu6     1.835   .     S
O8     Cu11    1.835   .     S
O9     Cu11    1.830   .     S
O10    Cu2     1.829   .     S
O11    Cu2     1.829   .     S
O12    Cu6     1.830   .     S
C13    C14     1.560   .     S
C13    C18     1.485   .     S
C13    O13     1.248   .     D
C14    C15     1.485   .     S
C14    O14     1.248   .     D
C15    C16     1.552   .     S
C15    O15     1.247   .     D
C16    C17     1.485   .     S
C16    O16     1.246   .     D
C17    C18     1.552   .     S
C17    O17     1.246   .     D
C18    O18     1.247   .     D
O13    Cu12    1.835   .     S
O14    Cu4     1.835   .     S
O15    Cu4     1.830   .     S
O16    Cu3     1.829   .     S
O17    Cu3     1.829   .     S
O18    Cu12    1.830   .     S
C19    C20     1.560   .     S
C19    C24     1.485   .     S
C19    O19     1.248   .     D
C20    C21     1.485   .     S
C20    O20     1.248   .     D
C21    C22     1.552   .     S
C21    O21     1.247   .     D
C22    C23     1.486   .     S
C22    O22     1.246   .     D
C23    C24     1.552   .     S
C23    O23     1.246   .     D
C24    O24     1.247   .     D
O19    Cu15    1.835   .     S
O20    Cu8     1.835   .     S
O21    Cu8     1.830   .     S
O22    Cu1     1.829   .     S
O23    Cu1     1.829   .     S
O24    Cu15    1.830   .     S
C25    C26     1.552   .     S
C25    C30     1.485   .     S
C25    O25     1.247   .     D
C26    C27     1.486   .     S
C26    O26     1.246   .     D
C27    C28     1.552   .     S
C27    O27     1.246   .     D
C28    C29     1.485   .     S
C28    O28     1.247   .     D
C29    C30     1.560   .     S
C29    O29     1.248   .     D
C30    O30     1.248   .     D
O25    Cu13    1.830   .     S
O26    Cu2     1.829   .     S
O27    Cu2     1.829   .     S
O28    Cu9     1.830   .     S
O29    Cu9     1.835   .     S
O30    Cu13    1.835   .     S
C31    C32     1.552   .     S
C31    C36     1.485   .     S
C31    O31     1.247   .     D
C32    C33     1.485   .     S
C32    O32     1.246   .     D
C33    C34     1.552   .     S
C33    O33     1.246   .     D
C34    C35     1.485   .     S
C34    O34     1.247   .     D
C35    C36     1.560   .     S
C35    O35     1.248   .     D
C36    O36     1.248   .     D
O31    Cu7     1.830   .     S
O32    Cu3     1.829   .     S
O33    Cu3     1.829   .     S
O34    Cu14    1.830   .     S
O35    Cu14    1.835   .     S
O36    Cu7     1.835   .     S
Fe7    O49     1.955   .     S
Fe7    O50     1.990   .     S
Fe7    O79     1.985   .     S
Fe7    O80     1.984   .     S
Fe7    O113    1.986   .     S
Fe7    O114    1.969   .     S
Fe8    O53     1.990   .     S
Fe8    O54     1.955   .     S
Fe8    O81     1.984   .     S
Fe8    O82     1.985   .     S
Fe8    O117    1.969   .     S
Fe8    O118    1.986   .     S
Fe9    O59     1.990   .     S
Fe9    O60     1.955   .     S
Fe9    O73     1.985   .     S
Fe9    O74     1.984   .     S
Fe9    O109    1.986   .     S
Fe9    O110    1.969   .     S
Fe10   O51     1.990   .     S
Fe10   O52     1.955   .     S
Fe10   O89     1.985   .     S
Fe10   O90     1.984   .     S
Fe10   O125    1.986   .     S
Fe10   O126    1.969   .     S
Fe11   O55     1.955   .     S
Fe11   O56     1.990   .     S
Fe11   O93     1.984   .     S
Fe11   O94     1.985   .     S
Fe11   O129    1.969   .     S
Fe11   O130    1.986   .     S
Fe12   O57     1.955   .     S
Fe12   O58     1.990   .     S
Fe12   O87     1.985   .     S
Fe12   O88     1.984   .     S
Fe12   O121    1.986   .     S
Fe12   O122    1.969   .     S
C37    C38     1.458   .     A
C37    C42     1.458   .     A
C37    H1      1.082   .     S
C38    C39     1.464   .     S
C38    O37     1.314   .     A
C39    C40     1.434   1_545 A
C39    O38     1.295   1_545 A
C40    C39     1.434   1_565 A
C40    C41     1.434   1_565 A
C40    H2      1.082   .     S
C41    C40     1.434   1_545 A
C41    C42     1.464   .     S
C41    O39     1.295   1_545 A
C42    O40     1.314   .     A
O38    C39     1.295   1_565 A
O38    Fe1     1.955   1_565 S
O39    C41     1.295   1_565 A
O39    Fe4     1.955   1_565 S
C43    C44     1.434   .     A
C43    C48     1.434   .     A
C43    H3      1.082   .     S
C44    C45     1.464   1_455 S
C44    O41     1.295   .     A
C45    C44     1.464   1_655 S
C45    C46     1.458   .     A
C45    O42     1.314   .     A
C46    C47     1.458   .     A
C46    H4      1.082   .     S
C47    C48     1.464   1_655 S
C47    O43     1.314   .     A
C48    C47     1.464   1_455 S
C48    O44     1.295   .     A
O42    Fe2     1.990   1_655 S
O43    Fe5     1.990   1_655 S
C49    C50     1.458   .     A
C49    C54     1.458   .     A
C49    H5      1.082   .     S
C50    C51     1.464   .     S
C50    O45     1.314   .     A
C51    C52     1.434   .     A
C51    O46     1.295   .     A
C52    C53     1.434   .     A
C52    H6      1.082   .     S
C53    C54     1.464   .     S
C53    O47     1.295   .     A
C54    O48     1.314   .     A
C55    C56     1.434   .     A
C55    C60     1.434   .     A
C55    H7      1.082   .     S
C56    C57     1.464   .     S
C56    O49     1.295   .     A
C57    C58     1.458   .     A
C57    O50     1.314   .     A
C58    C59     1.458   .     A
C58    H8      1.082   .     S
C59    C60     1.464   .     S
C59    O51     1.314   .     A
C60    O52     1.295   .     A
C61    C62     1.458   .     A
C61    C66     1.458   .     A
C61    H9      1.082   .     S
C62    C63     1.464   .     S
C62    O53     1.314   .     A
C63    C64     1.434   .     A
C63    O54     1.295   .     A
C64    C65     1.434   .     A
C64    H10     1.082   .     S
C65    C66     1.464   .     S
C65    O55     1.295   .     A
C66    O56     1.314   .     A
C67    C68     1.434   .     A
C67    C72     1.434   .     A
C67    H11     1.082   .     S
C68    C69     1.464   .     S
C68    O57     1.295   .     A
C69    C70     1.458   .     A
C69    O58     1.314   .     A
C70    C71     1.458   .     A
C70    H12     1.082   .     S
C71    C72     1.464   .     S
C71    O59     1.314   .     A
C72    O60     1.295   .     A
C73    C74     1.466   1_545 S
C73    C78     1.446   .     A
C73    O61     1.300   .     A
C74    C73     1.466   1_565 S
C74    C75     1.454   .     A
C74    O62     1.313   .     A
C75    C76     1.454   .     A
C75    H13     1.082   .     S
C76    C77     1.446   .     S
C76    O63     1.305   .     A
C77    C78     1.442   1_565 A
C77    O64     1.303   .     A
C78    C77     1.442   1_545 A
C78    H14     1.082   .     S
O62    Fe1     1.986   1_565 S
O63    Cu4     1.837   .     S
O64    Cu4     1.828   .     S
C79    C80     1.466   .     S
C79    C84     1.454   .     A
C79    O65     1.313   .     A
C80    C81     1.446   .     A
C80    O66     1.300   1_455 A
C81    C82     1.442   .     A
C81    H15     1.082   1_455 S
C82    C83     1.446   .     S
C82    O67     1.303   .     A
C83    C84     1.454   .     A
C83    O68     1.305   .     A
C84    H16     1.082   .     S
O66    C80     1.300   1_655 A
O66    Fe2     1.969   1_655 S
H15    C81     1.082   1_655 S
O67    Cu5     1.828   .     S
O68    Cu5     1.837   .     S
C85    C86     1.466   .     S
C85    C90     1.446   .     A
C85    O69     1.300   .     A
C86    C87     1.454   .     A
C86    O70     1.313   .     A
C87    C88     1.454   .     A
C87    H17     1.082   .     S
C88    C89     1.446   .     S
C88    O71     1.305   .     A
C89    C90     1.442   .     A
C89    O72     1.303   .     A
C90    H18     1.082   .     S
O71    Cu6     1.837   .     S
O72    Cu6     1.828   .     S
C91    C92     1.453   .     A
C91    C96     1.453   .     A
C91    H19     1.082   .     S
C92    C93     1.459   .     S
C92    O73     1.309   .     A
C93    C94     1.453   1_556 A
C93    O74     1.309   .     A
C94    C93     1.453   1_554 A
C94    C95     1.453   .     A
C94    H20     1.082   .     S
C95    C96     1.459   1_554 S
C95    O75     1.309   .     A
C96    C95     1.459   1_556 S
C96    O76     1.309   1_655 A
O75    Fe2     1.985   1_655 S
O76    C96     1.309   1_455 A
O76    Fe2     1.984   1_556 S
C97    C98     1.453   .     A
C97    C102    1.453   1_554 A
C97    H21     1.082   .     S
C98    C99     1.459   1_554 S
C98    O77     1.309   .     A
C99    C98     1.459   1_556 S
C99    C100    1.453   .     A
C99    O78     1.309   .     A
C100   C101    1.453   .     A
C100   H22     1.082   .     S
C101   C102    1.459   .     S
C101   O79     1.309   .     A
C102   C97     1.453   1_556 A
C102   O80     1.309   .     A
O78    Fe3     1.984   1_556 S
C103   C104    1.453   .     A
C103   C108    1.453   1_556 A
C103   H23     1.082   1_556 S
C104   C105    1.459   .     S
C104   O81     1.309   .     A
C105   C106    1.453   .     A
C105   O82     1.309   .     A
C106   C107    1.453   .     A
C106   H24     1.082   .     S
C107   C108    1.459   1_556 S
C107   O83     1.309   1_556 A
C108   C103    1.453   1_554 A
C108   C107    1.459   1_554 S
C108   O84     1.309   .     A
H23    C103    1.082   1_554 S
O83    C107    1.309   1_554 A
C109   C110    1.453   .     A
C109   C114    1.453   1_554 A
C109   H25     1.082   .     S
C110   C111    1.459   1_554 S
C110   O85     1.309   .     A
C111   C110    1.459   1_556 S
C111   C112    1.453   .     A
C111   O86     1.309   .     A
C112   C113    1.453   .     A
C112   H26     1.082   .     S
C113   C114    1.459   .     S
C113   O87     1.309   .     A
C114   C109    1.453   1_556 A
C114   O88     1.309   .     A
O86    Fe4     1.984   1_556 S
C115   C116    1.453   .     A
C115   C120    1.453   .     A
C115   H27     1.082   1_655 S
C116   C117    1.459   .     S
C116   O89     1.309   .     A
C117   C118    1.453   1_556 A
C117   O90     1.309   .     A
C118   C117    1.453   1_554 A
C118   C119    1.453   .     A
C118   H28     1.082   .     S
C119   C120    1.459   1_554 S
C119   O91     1.309   .     A
C120   C119    1.459   1_556 S
C120   O92     1.309   1_656 A
H27    C115    1.082   1_455 S
O91    Fe5     1.985   1_655 S
O92    C120    1.309   1_454 A
C121   C122    1.453   1_554 A
C121   C126    1.453   .     A
C121   H29     1.082   .     S
C122   C121    1.453   1_556 A
C122   C123    1.459   .     S
C122   O93     1.309   .     A
C123   C124    1.453   .     A
C123   O94     1.309   .     A
C124   C125    1.453   .     A
C124   H30     1.082   .     S
C125   C126    1.459   1_556 S
C125   O95     1.309   .     A
C126   C125    1.459   1_554 S
C126   O96     1.309   .     A
O95    Fe6     1.984   1_556 S
C127   C128    1.466   .     S
C127   C132    1.454   .     A
C127   O97     1.313   .     A
C128   C129    1.446   .     A
C128   O98     1.300   1_455 A
C129   C130    1.442   .     A
C129   H31     1.082   1_455 S
C130   C131    1.446   .     S
C130   O99     1.303   .     A
C131   C132    1.454   .     A
C131   O100    1.305   .     A
C132   H32     1.082   .     S
O98    C128    1.300   1_655 A
O98    Fe5     1.969   1_655 S
H31    C129    1.082   1_655 S
O99    Cu7     1.828   .     S
O100   Cu7     1.837   .     S
C133   C134    1.466   .     S
C133   C138    1.446   .     A
C133   O101    1.300   .     A
C134   C135    1.454   .     A
C134   O102    1.313   .     A
C135   C136    1.454   .     A
C135   H33     1.082   .     S
C136   C137    1.446   .     S
C136   O103    1.305   .     A
C137   C138    1.442   .     A
C137   O104    1.303   .     A
C138   H34     1.082   .     S
O103   Cu8     1.837   .     S
O104   Cu8     1.828   .     S
C139   C140    1.466   1_545 S
C139   C144    1.446   .     A
C139   O105    1.300   .     A
C140   C139    1.466   1_565 S
C140   C141    1.454   .     A
C140   O106    1.313   .     A
C141   C142    1.454   .     A
C141   H35     1.082   .     S
C142   C143    1.446   .     S
C142   O107    1.305   .     A
C143   C144    1.442   1_565 A
C143   O108    1.303   .     A
C144   C143    1.442   1_545 A
C144   H36     1.082   .     S
O106   Fe4     1.986   1_565 S
O107   Cu9     1.837   .     S
O108   Cu9     1.828   .     S
C145   C146    1.466   .     S
C145   C150    1.454   1_655 A
C145   O109    1.313   .     A
C146   C147    1.446   .     A
C146   O110    1.300   .     A
C147   C148    1.442   1_655 A
C147   H37     1.082   .     S
C148   C147    1.442   1_455 A
C148   C149    1.446   .     S
C148   O111    1.303   .     A
C149   C150    1.454   .     A
C149   O112    1.305   .     A
C150   C145    1.454   1_455 A
C150   H38     1.082   .     S
O111   Cu10    1.828   .     S
O112   Cu10    1.837   .     S
C151   C152    1.466   .     S
C151   C156    1.454   .     A
C151   O113    1.313   .     A
C152   C153    1.446   .     A
C152   O114    1.300   .     A
C153   C154    1.442   .     A
C153   H39     1.082   .     S
C154   C155    1.446   .     S
C154   O115    1.303   .     A
C155   C156    1.454   .     A
C155   O116    1.305   .     A
C156   H40     1.082   .     S
O115   Cu11    1.828   .     S
O116   Cu11    1.837   .     S
C157   C158    1.466   .     S
C157   C162    1.446   .     A
C157   O117    1.300   .     A
C158   C159    1.454   1_545 A
C158   O118    1.313   .     A
C159   C158    1.454   1_565 A
C159   C160    1.454   .     A
C159   H41     1.082   .     S
C160   C161    1.446   1_565 S
C160   O119    1.305   .     A
C161   C160    1.446   1_545 S
C161   C162    1.442   .     A
C161   O120    1.303   .     A
C162   H42     1.082   .     S
O119   Cu12    1.837   .     S
O120   Cu12    1.828   1_545 S
Cu12   O120    1.828   1_565 S
C163   C164    1.466   .     S
C163   C168    1.454   1_545 A
C163   O121    1.313   .     A
C164   C165    1.446   .     A
C164   O122    1.300   .     A
C165   C166    1.442   .     A
C165   H43     1.082   .     S
C166   C167    1.446   1_545 S
C166   O123    1.303   .     A
C167   C166    1.446   1_565 S
C167   C168    1.454   .     A
C167   O124    1.305   .     A
C168   C163    1.454   1_565 A
C168   H44     1.082   .     S
O123   Cu13    1.828   1_545 S
O124   Cu13    1.837   .     S
Cu13   O123    1.828   1_565 S
C169   C170    1.466   .     S
C169   C174    1.454   1_655 A
C169   O125    1.313   .     A
C170   C171    1.446   .     A
C170   O126    1.300   .     A
C171   C172    1.442   1_655 A
C171   H45     1.082   .     S
C172   C171    1.442   1_455 A
C172   C173    1.446   .     S
C172   O127    1.303   .     A
C173   C174    1.454   .     A
C173   O128    1.305   .     A
C174   C169    1.454   1_455 A
C174   H46     1.082   .     S
O127   Cu14    1.828   .     S
O128   Cu14    1.837   .     S
C175   C176    1.466   .     S
C175   C180    1.446   .     A
C175   O129    1.300   .     A
C176   C177    1.454   .     A
C176   O130    1.313   .     A
C177   C178    1.454   .     A
C177   H47     1.082   .     S
C178   C179    1.446   .     S
C178   O131    1.305   .     A
C179   C180    1.442   .     A
C179   O132    1.303   .     A
C180   H48     1.082   .     S
O131   Cu15    1.837   .     S
O132   Cu15    1.828   .     S
