data_etb_Feoct_TN_Cupln_DHBQ
_audit_creation_date              2023-08-06
_audit_creation_method            'Materials Studio'
_symmetry_space_group_name_H-M    'P1'
_symmetry_Int_Tables_number       1
_symmetry_cell_setting            triclinic
loop_
_symmetry_equiv_pos_as_xyz
  x,y,z
_cell_length_a                    50.9945
_cell_length_b                    50.8454
_cell_length_c                    21.4888
_cell_angle_alpha                 90.1751
_cell_angle_beta                  89.7551
_cell_angle_gamma                 119.4030
loop_
_atom_site_label
_atom_site_type_symbol
_atom_site_fract_x
_atom_site_fract_y
_atom_site_fract_z
_atom_site_U_iso_or_equiv
_atom_site_adp_type
_atom_site_occupancy
Fe1    Fe    0.56521   0.02403   0.05135   0.00000  Uiso   1.00
Fe2    Fe    0.03147   0.33564   0.05153   0.00000  Uiso   1.00
Fe3    Fe    0.72039   0.48959   0.05116   0.00000  Uiso   1.00
Fe4    Fe    0.72101   0.02612   0.05159   0.00000  Uiso   1.00
Fe5    Fe    0.03148   0.49082   0.05165   0.00000  Uiso   1.00
Fe6    Fe    0.56690   0.33557   0.05130   0.00000  Uiso   1.00
C1     C     0.06687   0.27731   0.43651   0.00000  Uiso   1.00
C2     C     0.09024   0.27197   0.47046   0.00000  Uiso   1.00
C3     C     0.11860   0.27571   0.43400   0.00000  Uiso   1.00
C4     C     0.12612   0.29088   0.37004   0.00000  Uiso   1.00
C5     C     0.10154   0.29455   0.33357   0.00000  Uiso   1.00
C6     C     0.07295   0.28947   0.36767   0.00000  Uiso   1.00
C7     C     0.15507   0.30112   0.34676   0.00000  Uiso   1.00
C8     C     0.17849   0.29440   0.37605   0.00000  Uiso   1.00
C9     C     0.16768   0.27241   0.42795   0.00000  Uiso   1.00
C10    C     0.13753   0.26558   0.45727   0.00000  Uiso   1.00
C11    C     0.04048   0.27064   0.46844   0.00000  Uiso   1.00
C12    C     0.03380   0.26070   0.53644   0.00000  Uiso   1.00
C13    C     0.05807   0.25946   0.57180   0.00000  Uiso   1.00
C14    C     0.08584   0.26481   0.53379   0.00000  Uiso   1.00
C15    C     0.05333   0.29633   0.33581   0.00000  Uiso   1.00
C16    C     0.05659   0.30614   0.26773   0.00000  Uiso   1.00
C17    C     0.08191   0.30686   0.23214   0.00000  Uiso   1.00
C18    C     0.10425   0.30144   0.27012   0.00000  Uiso   1.00
C19    C     0.08445   0.31280   0.16841   0.00000  Uiso   1.00
C20    C     0.06257   0.31996   0.13309   0.00000  Uiso   1.00
C21    C     0.03933   0.32140   0.16969   0.00000  Uiso   1.00
C22    C     0.03689   0.31350   0.23859   0.00000  Uiso   1.00
C23    C     0.18528   0.26035   0.44869   0.00000  Uiso   1.00
C24    C     0.21703   0.27071   0.42373   0.00000  Uiso   1.00
C25    C     0.22960   0.29634   0.38017   0.00000  Uiso   1.00
C26    C     0.20799   0.30658   0.35527   0.00000  Uiso   1.00
H1     H     0.16185   0.31408   0.30425   0.00000  Uiso   1.00
H2     H     0.13153   0.25263   0.49979   0.00000  Uiso   1.00
H3     H     0.02283   0.27261   0.44536   0.00000  Uiso   1.00
H4     H     0.10291   0.26275   0.55934   0.00000  Uiso   1.00
H5     H     0.03378   0.29458   0.35899   0.00000  Uiso   1.00
H6     H     0.12333   0.30326   0.24450   0.00000  Uiso   1.00
H7     H     0.10289   0.31306   0.14276   0.00000  Uiso   1.00
O1     O     0.06265   0.32520   0.07605   0.00000  Uiso   1.00
O2     O     0.02279   0.32871   0.14088   0.00000  Uiso   1.00
H8     H     0.01860   0.31309   0.26512   0.00000  Uiso   1.00
H9     H     0.17692   0.24391   0.48592   0.00000  Uiso   1.00
O3     O     0.23358   0.25995   0.43846   0.00000  Uiso   1.00
O4     O     0.25675   0.30721   0.36538   0.00000  Uiso   1.00
H10    H     0.21578   0.32302   0.31804   0.00000  Uiso   1.00
C27    C     0.05443   0.25320   0.63541   0.00000  Uiso   1.00
C28    C     0.02552   0.24632   0.67083   0.00000  Uiso   1.00
C29    C     1.00122   0.24553   0.63449   0.00000  Uiso   1.00
C30    C     1.00688   0.25364   0.56568   0.00000  Uiso   1.00
H11    H     0.07236   0.25256   0.66090   0.00000  Uiso   1.00
O5     O     0.02019   0.24086   0.72778   0.00000  Uiso   1.00
O6     O     0.97752   0.23857   0.66344   0.00000  Uiso   1.00
H12    H     0.98925   0.25444   0.53930   0.00000  Uiso   1.00
C31    C     0.76117   0.60086   0.33344   0.00000  Uiso   1.00
C32    C     0.76644   0.57737   0.36738   0.00000  Uiso   1.00
C33    C     0.77859   0.58344   0.43616   0.00000  Uiso   1.00
C34    C     0.78367   0.61211   0.47020   0.00000  Uiso   1.00
C35    C     0.78002   0.63677   0.43375   0.00000  Uiso   1.00
C36    C     0.76489   0.62925   0.36989   0.00000  Uiso   1.00
C37    C     0.79054   0.61483   0.53360   0.00000  Uiso   1.00
C38    C     0.79598   0.59244   0.57160   0.00000  Uiso   1.00
C39    C     0.79527   0.56706   0.53608   0.00000  Uiso   1.00
C40    C     0.78544   0.56376   0.46803   0.00000  Uiso   1.00
C41    C     0.75412   0.59654   0.27012   0.00000  Uiso   1.00
C42    C     0.74874   0.56872   0.23210   0.00000  Uiso   1.00
C43    C     0.74981   0.54428   0.26746   0.00000  Uiso   1.00
C44    C     0.75973   0.55090   0.33545   0.00000  Uiso   1.00
C45    C     0.75474   0.64821   0.34668   0.00000  Uiso   1.00
C46    C     0.76156   0.67842   0.37595   0.00000  Uiso   1.00
C47    C     0.78351   0.68927   0.42771   0.00000  Uiso   1.00
C48    C     0.79024   0.66579   0.45696   0.00000  Uiso   1.00
C49    C     0.79564   0.71883   0.44844   0.00000  Uiso   1.00
C50    C     0.78540   0.74049   0.42359   0.00000  Uiso   1.00
C51    C     0.75984   0.72788   0.38015   0.00000  Uiso   1.00
C52    C     0.74951   0.69606   0.35527   0.00000  Uiso   1.00
C53    C     0.80267   0.54735   0.56528   0.00000  Uiso   1.00
C54    C     0.81059   0.54984   0.63416   0.00000  Uiso   1.00
C55    C     0.80909   0.57313   0.67068   0.00000  Uiso   1.00
C56    C     0.80191   0.59503   0.63530   0.00000  Uiso   1.00
H13    H     0.79234   0.63395   0.55919   0.00000  Uiso   1.00
H14    H     0.78368   0.54415   0.44488   0.00000  Uiso   1.00
H15    H     0.75213   0.61373   0.24459   0.00000  Uiso   1.00
H16    H     0.76166   0.53317   0.35854   0.00000  Uiso   1.00
H17    H     0.74181   0.64220   0.30425   0.00000  Uiso   1.00
H18    H     0.80319   0.67259   0.49939   0.00000  Uiso   1.00
H19    H     0.81204   0.72664   0.48556   0.00000  Uiso   1.00
O7     O     0.79623   0.76770   0.43834   0.00000  Uiso   1.00
O8     O     0.74909   0.74446   0.36545   0.00000  Uiso   1.00
H20    H     0.73311   0.68767   0.31814   0.00000  Uiso   1.00
H21    H     0.80229   0.52901   0.53883   0.00000  Uiso   1.00
O9     O     0.81793   0.53330   0.66304   0.00000  Uiso   1.00
O10    O     0.81433   0.57324   0.72771   0.00000  Uiso   1.00
H22    H     0.80215   0.61351   0.66087   0.00000  Uiso   1.00
C57    C     0.74263   0.51727   0.23820   0.00000  Uiso   1.00
C58    C     0.73457   0.51171   0.16938   0.00000  Uiso   1.00
C59    C     0.73559   0.53621   0.13305   0.00000  Uiso   1.00
C60    C     0.74257   0.56520   0.16850   0.00000  Uiso   1.00
H23    H     0.74329   0.49950   0.26454   0.00000  Uiso   1.00
O11    O     0.72747   0.48794   0.14041   0.00000  Uiso   1.00
O12    O     0.73019   0.53096   0.07609   0.00000  Uiso   1.00
H24    H     0.74205   0.58327   0.14304   0.00000  Uiso   1.00
C61    C     0.44267   0.96490   0.47049   0.00000  Uiso   1.00
C62    C     0.47114   0.98810   0.43634   0.00000  Uiso   1.00
C63    C     0.47724   0.98201   0.36738   0.00000  Uiso   1.00
C64    C     0.45408   0.95350   0.33327   0.00000  Uiso   1.00
C65    C     0.42588   0.92909   0.36977   0.00000  Uiso   1.00
C66    C     0.41827   0.93674   0.43399   0.00000  Uiso   1.00
C67    C     0.45855   0.95077   0.26983   0.00000  Uiso   1.00
C68    C     0.48619   0.97308   0.23185   0.00000  Uiso   1.00
C69    C     0.51023  -0.00158   0.26740   0.00000  Uiso   1.00
C70    C     0.50349   0.00159   0.33547   0.00000  Uiso   1.00
C71    C     0.43995   0.96931   0.53397   0.00000  Uiso   1.00
C72    C     0.46224  -0.00305   0.57193   0.00000  Uiso   1.00
C73    C     0.48752   0.02108   0.53633   0.00000  Uiso   1.00
C74    C     0.49069   0.01438   0.46823   0.00000  Uiso   1.00
C75    C     0.38942   0.91811   0.45742   0.00000  Uiso   1.00
C76    C     0.36621   0.88813   0.42801   0.00000  Uiso   1.00
C77    C     0.37721   0.87703   0.37577   0.00000  Uiso   1.00
C78    C     0.40720   0.90021   0.34635   0.00000  Uiso   1.00
C79    C     0.35989   0.84753   0.35487   0.00000  Uiso   1.00
C80    C     0.32824   0.82625   0.37996   0.00000  Uiso   1.00
C81    C     0.31541   0.83921   0.42384   0.00000  Uiso   1.00
C82    C     0.33676   0.87089   0.44892   0.00000  Uiso   1.00
C83    C     0.53701   0.01824   0.23830   0.00000  Uiso   1.00
C84    C     0.54280   0.01593   0.16945   0.00000  Uiso   1.00
C85    C     0.51874   0.99254   0.13288   0.00000  Uiso   1.00
C86    C     0.48994   0.97055   0.16815   0.00000  Uiso   1.00
H25    H     0.44164   0.93175   0.24417   0.00000  Uiso   1.00
H26    H     0.52103   0.02105   0.35860   0.00000  Uiso   1.00
H27    H     0.42094   0.95235   0.55964   0.00000  Uiso   1.00
H28    H     0.51014   0.03196   0.44508   0.00000  Uiso   1.00
H29    H     0.38256   0.92425   0.50016   0.00000  Uiso   1.00
H30    H     0.41328   0.89331   0.30361   0.00000  Uiso   1.00
H31    H     0.36840   0.83951   0.31741   0.00000  Uiso   1.00
O13    O     0.31197   0.79910   0.36512   0.00000  Uiso   1.00
O14    O     0.28831   0.82301   0.43870   0.00000  Uiso   1.00
H32    H     0.32881   0.87948   0.48638   0.00000  Uiso   1.00
H33    H     0.55445   0.03655   0.26488   0.00000  Uiso   1.00
O15    O     0.56640   0.03266   0.14066   0.00000  Uiso   1.00
O16    O     0.52418   0.99249   0.07590   0.00000  Uiso   1.00
H34    H     0.47219   0.95210   0.14246   0.00000  Uiso   1.00
C87    C     0.50731   0.04790   0.56539   0.00000  Uiso   1.00
C88    C     0.50499   0.05363   0.63428   0.00000  Uiso   1.00
C89    C     0.48168   0.02947   0.67091   0.00000  Uiso   1.00
C90    C     0.45973   0.00063   0.63567   0.00000  Uiso   1.00
H35    H     0.52558   0.06541   0.53878   0.00000  Uiso   1.00
O17    O     0.52167   0.07728   0.66303   0.00000  Uiso   1.00
O18    O     0.48164   0.03486   0.72792   0.00000  Uiso   1.00
H36    H     0.44132   0.98282   0.66141   0.00000  Uiso   1.00
C91    C     0.44758   0.27873   0.47333   0.00000  Uiso   1.00
C92    C     0.47375   0.27930   0.43696   0.00000  Uiso   1.00
C93    C     0.47840   0.28851   0.36653   0.00000  Uiso   1.00
C94    C     0.45304   0.28935   0.33026   0.00000  Uiso   1.00
C95    C     0.42394   0.28401   0.36613   0.00000  Uiso   1.00
C96    C     0.42382   0.28404   0.43744   0.00000  Uiso   1.00
C97    C     0.45759   0.29657   0.26698   0.00000  Uiso   1.00
C98    C     0.48641   0.30420   0.23030   0.00000  Uiso   1.00
C99    C     0.51146   0.30509   0.26682   0.00000  Uiso   1.00
C100   C     0.50537   0.29671   0.33566   0.00000  Uiso   1.00
C101   C     0.44497   0.27176   0.53673   0.00000  Uiso   1.00
C102   C     0.46612   0.26404   0.57339   0.00000  Uiso   1.00
C103   C     0.49012   0.26264   0.53667   0.00000  Uiso   1.00
C104   C     0.49242   0.27089   0.46778   0.00000  Uiso   1.00
C105   C     0.40189   0.28820   0.46759   0.00000  Uiso   1.00
C106   C     0.37527   0.28832   0.43505   0.00000  Uiso   1.00
C107   C     0.37109   0.27952   0.36850   0.00000  Uiso   1.00
C108   C     0.39802   0.27976   0.33596   0.00000  Uiso   1.00
C109   C     0.34442   0.27296   0.33890   0.00000  Uiso   1.00
C110   C     0.31962   0.27687   0.37065   0.00000  Uiso   1.00
C111   C     0.32625   0.29069   0.43299   0.00000  Uiso   1.00
C112   C     0.35483   0.29475   0.46469   0.00000  Uiso   1.00
C113   C     0.53876   0.31317   0.23819   0.00000  Uiso   1.00
C114   C     0.54436   0.32085   0.16919   0.00000  Uiso   1.00
C115   C     0.51982   0.31923   0.13233   0.00000  Uiso   1.00
C116   C     0.49026   0.31073   0.16682   0.00000  Uiso   1.00
H37    H     0.44033   0.29807   0.24092   0.00000  Uiso   1.00
H38    H     0.52409   0.29787   0.36114   0.00000  Uiso   1.00
H39    H     0.42630   0.27051   0.56293   0.00000  Uiso   1.00
H40    H     0.50996   0.26950   0.44223   0.00000  Uiso   1.00
H41    H     0.40251   0.29057   0.51756   0.00000  Uiso   1.00
H42    H     0.39652   0.27739   0.28598   0.00000  Uiso   1.00
H43    H     0.34143   0.26608   0.29056   0.00000  Uiso   1.00
O19    O     0.29458   0.27021   0.34763   0.00000  Uiso   1.00
O20    O     0.30758   0.29724   0.45606   0.00000  Uiso   1.00
H44    H     0.35839   0.30163   0.51303   0.00000  Uiso   1.00
H45    H     0.55690   0.31387   0.26540   0.00000  Uiso   1.00
O21    O     0.56827   0.32836   0.14061   0.00000  Uiso   1.00
O22    O     0.52541   0.32519   0.07561   0.00000  Uiso   1.00
H46    H     0.47188   0.31006   0.14059   0.00000  Uiso   1.00
C117   C     0.50918   0.25426   0.56521   0.00000  Uiso   1.00
C118   C     0.50711   0.24678   0.63429   0.00000  Uiso   1.00
C119   C     0.48445   0.24905   0.67141   0.00000  Uiso   1.00
C120   C     0.46354   0.25784   0.63700   0.00000  Uiso   1.00
H47    H     0.52651   0.25317   0.53786   0.00000  Uiso   1.00
O23    O     0.52333   0.23893   0.66274   0.00000  Uiso   1.00
O24    O     0.48415   0.24332   0.72822   0.00000  Uiso   1.00
H48    H     0.44596   0.25890   0.66338   0.00000  Uiso   1.00
C121   C     0.77749   0.98978   0.43723   0.00000  Uiso   1.00
C122   C     0.77826   0.96429   0.47349   0.00000  Uiso   1.00
C123   C     0.77293   0.93515   0.43765   0.00000  Uiso   1.00
C124   C     0.77303   0.93510   0.36635   0.00000  Uiso   1.00
C125   C     0.76773   0.95892   0.33049   0.00000  Uiso   1.00
C126   C     0.76830   0.98515   0.36683   0.00000  Uiso   1.00
C127   C     0.77724   0.91316   0.33620   0.00000  Uiso   1.00
C128   C     0.77733   0.88644   0.36873   0.00000  Uiso   1.00
C129   C     0.76848   0.88218   0.43528   0.00000  Uiso   1.00
C130   C     0.76866   0.90912   0.46782   0.00000  Uiso   1.00
C131   C     0.78574   0.01682   0.46810   0.00000  Uiso   1.00
C132   C     0.79411   0.02286   0.53692   0.00000  Uiso   1.00
C133   C     0.79308  -0.00236   0.57343   0.00000  Uiso   1.00
C134   C     0.78542   0.96877   0.53675   0.00000  Uiso   1.00
C135   C     0.75991   0.00388   0.33600   0.00000  Uiso   1.00
C136   C     0.75162   0.00153   0.26713   0.00000  Uiso   1.00
C137   C     0.75303   0.97747   0.23048   0.00000  Uiso   1.00
C138   C     0.76075   0.95628   0.26714   0.00000  Uiso   1.00
C139   C     0.74683   0.97485   0.16691   0.00000  Uiso   1.00
C140   C     0.73802  -0.00423   0.13244   0.00000  Uiso   1.00
C141   C     0.73570   0.01847   0.16948   0.00000  Uiso   1.00
C142   C     0.74320   0.02060   0.23854   0.00000  Uiso   1.00
C143   C     0.76193   0.85541   0.46489   0.00000  Uiso   1.00
C144   C     0.76589   0.83060   0.43315   0.00000  Uiso   1.00
C145   C     0.77973   0.83732   0.37080   0.00000  Uiso   1.00
C146   C     0.78379   0.86599   0.33909   0.00000  Uiso   1.00
H49    H     0.77966   0.91384   0.28622   0.00000  Uiso   1.00
H50    H     0.76624   0.90756   0.51780   0.00000  Uiso   1.00
H51    H     0.78692   0.03563   0.44262   0.00000  Uiso   1.00
H52    H     0.78686   0.95142   0.56279   0.00000  Uiso   1.00
H53    H     0.75856   0.02149   0.36153   0.00000  Uiso   1.00
H54    H     0.75948   0.93755   0.24100   0.00000  Uiso   1.00
H55    H     0.74789   0.95721   0.14060   0.00000  Uiso   1.00
O25    O     0.73230   0.99543   0.07564   0.00000  Uiso   1.00
O26    O     0.72782   0.03469   0.14097   0.00000  Uiso   1.00
H56    H     0.74209   0.03797   0.26582   0.00000  Uiso   1.00
H57    H     0.75501   0.85236   0.51323   0.00000  Uiso   1.00
O27    O     0.75924   0.80549   0.45620   0.00000  Uiso   1.00
O28    O     0.78629   0.81864   0.34771   0.00000  Uiso   1.00
H58    H     0.79071   0.86962   0.29075   0.00000  Uiso   1.00
C147   C     0.79951   0.00139   0.63691   0.00000  Uiso   1.00
C148   C     0.80811   0.03102   0.67143   0.00000  Uiso   1.00
C149   C     0.80995   0.05575   0.63459   0.00000  Uiso   1.00
C150   C     0.80232   0.05025   0.56558   0.00000  Uiso   1.00
H59    H     0.79872   0.98287   0.66311   0.00000  Uiso   1.00
O29    O     0.81400   0.03651   0.72817   0.00000  Uiso   1.00
O30    O     0.81759   0.07973   0.66319   0.00000  Uiso   1.00
H60    H     0.80314   0.06853   0.53840   0.00000  Uiso   1.00
C151   C     0.07300   0.57939   0.36670   0.00000  Uiso   1.00
C152   C     0.09901   0.60465   0.33032   0.00000  Uiso   1.00
C153   C     0.12260   0.63358   0.36625   0.00000  Uiso   1.00
C154   C     0.12250   0.63361   0.43762   0.00000  Uiso   1.00
C155   C     0.09356   0.61002   0.47355   0.00000  Uiso   1.00
C156   C     0.06836   0.58400   0.43719   0.00000  Uiso   1.00
C157   C     0.14829   0.65527   0.46776   0.00000  Uiso   1.00
C158   C     0.17504   0.68172   0.43522   0.00000  Uiso   1.00
C159   C     0.17077   0.68612   0.36866   0.00000  Uiso   1.00
C160   C     0.14433   0.65942   0.33612   0.00000  Uiso   1.00
C161   C     0.05440   0.55249   0.33587   0.00000  Uiso   1.00
C162   C     0.05658   0.54641   0.26696   0.00000  Uiso   1.00
C163   C     0.08052   0.57136   0.23021   0.00000  Uiso   1.00
C164   C     0.10161   0.60010   0.26686   0.00000  Uiso   1.00
C165   C     0.04150   0.56538   0.46804   0.00000  Uiso   1.00
C166   C     0.03537   0.56755   0.53694   0.00000  Uiso   1.00
C167   C     0.06023   0.59154   0.57363   0.00000  Uiso   1.00
C168   C     0.08895   0.61264   0.53698   0.00000  Uiso   1.00
C169   C     0.05626   0.59410   0.63721   0.00000  Uiso   1.00
C170   C     0.02678   0.57309   0.67156   0.00000  Uiso   1.00
C171   C     1.00248   0.55029   0.63448   0.00000  Uiso   1.00
C172   C     0.00819   0.54834   0.56543   0.00000  Uiso   1.00
C173   C     0.19096   0.71276   0.33905   0.00000  Uiso   1.00
C174   C     0.21938   0.73725   0.37078   0.00000  Uiso   1.00
C175   C     0.22620   0.73028   0.43308   0.00000  Uiso   1.00
C176   C     0.20163   0.70182   0.46482   0.00000  Uiso   1.00
H61    H     0.14980   0.65455   0.51775   0.00000  Uiso   1.00
H62    H     0.14369   0.66100   0.28613   0.00000  Uiso   1.00
H63    H     0.03702   0.53377   0.36142   0.00000  Uiso   1.00
H64    H     0.12019   0.61727   0.24061   0.00000  Uiso   1.00
H65    H     0.02283   0.54799   0.44251   0.00000  Uiso   1.00
H66    H     0.10607   0.63124   0.56318   0.00000  Uiso   1.00
H67    H     0.07448   0.61170   0.66364   0.00000  Uiso   1.00
O31    O     0.02108   0.57338   0.72831   0.00000  Uiso   1.00
O32    O     0.97865   0.53387   0.66290   0.00000  Uiso   1.00
H68    H     0.99021   0.53101   0.53803   0.00000  Uiso   1.00
H69    H     0.18732   0.71593   0.29071   0.00000  Uiso   1.00
O33    O     0.23780   0.76226   0.34778   0.00000  Uiso   1.00
O34    O     0.25115   0.74862   0.45607   0.00000  Uiso   1.00
H70    H     0.20470   0.69809   0.51316   0.00000  Uiso   1.00
C177   C     0.08306   0.56746   0.16659   0.00000  Uiso   1.00
C178   C     0.06208   0.53795   0.13227   0.00000  Uiso   1.00
C179   C     0.03936   0.51353   0.16943   0.00000  Uiso   1.00
C180   C     0.03741   0.51919   0.23849   0.00000  Uiso   1.00
H71    H     0.10062   0.58575   0.14013   0.00000  Uiso   1.00
O35    O     0.06236   0.53229   0.07549   0.00000  Uiso   1.00
O36    O     0.02299   0.48966   0.14104   0.00000  Uiso   1.00
H72    H     0.02012   0.50114   0.26593   0.00000  Uiso   1.00
Fe7    Fe    0.82478   0.54202   0.75236   0.00000  Uiso   1.00
Fe8    Fe    0.51305   0.07601   0.75236   0.00000  Uiso   1.00
Fe9    Fe    0.97899   0.23132   0.75268   0.00000  Uiso   1.00
Fe10   Fe    0.97973   0.54237   0.75226   0.00000  Uiso   1.00
Fe11   Fe    0.51480   0.23204   0.75214   0.00000  Uiso   1.00
Fe12   Fe    0.82463   0.07818   0.75250   0.00000  Uiso   1.00
C181   C     0.65915   0.05846   0.03557   0.00000  Uiso   1.00
C182   C     0.62659   0.04253   0.04360   0.00000  Uiso   1.00
C183   C     0.61157   0.01055   0.06063   0.00000  Uiso   1.00
C184   C     0.62892  -0.00445   0.06906   0.00000  Uiso   1.00
C185   C     0.66101   0.01121   0.06081   0.00000  Uiso   1.00
C186   C     0.67673   0.04322   0.04382   0.00000  Uiso   1.00
H73    H     0.67051   0.08210   0.02298   0.00000  Uiso   1.00
O37    O     0.60838   0.05371   0.03715   0.00000  Uiso   1.00
O38    O     0.58259  -0.00216   0.06690   0.00000  Uiso   1.00
H74    H     0.61756   0.97189   0.08164   0.00000  Uiso   1.00
O39    O     0.67808  -0.00087   0.06720   0.00000  Uiso   1.00
O40    O     0.70599   0.05504   0.03760   0.00000  Uiso   1.00
C187   C     0.06093   0.42775   0.06911   0.00000  Uiso   1.00
C188   C     0.04561   0.39559   0.06072   0.00000  Uiso   1.00
C189   C     0.01372   0.37950   0.04381   0.00000  Uiso   1.00
C190   C     0.99819   0.39683   0.03584   0.00000  Uiso   1.00
C191   C     0.01375   0.42946   0.04402   0.00000  Uiso   1.00
C192   C     0.04566   0.44485   0.06091   0.00000  Uiso   1.00
H75    H     0.08451   0.43936   0.08160   0.00000  Uiso   1.00
O41    O     0.05796   0.37874   0.06694   0.00000  Uiso   1.00
O42    O     1.00224   0.35020   0.03742   0.00000  Uiso   1.00
H76    H     0.97462   0.38523   0.02334   0.00000  Uiso   1.00
O43    O     1.00228   0.44743   0.03781   0.00000  Uiso   1.00
O44    O     0.05802   0.47390   0.06726   0.00000  Uiso   1.00
C193   C     0.66047   0.39574   0.03493   0.00000  Uiso   1.00
C194   C     0.62792   0.37883   0.04334   0.00000  Uiso   1.00
C195   C     0.61215   0.39530   0.06067   0.00000  Uiso   1.00
C196   C     0.62878   0.42745   0.06907   0.00000  Uiso   1.00
C197   C     0.66085   0.44414   0.06049   0.00000  Uiso   1.00
C198   C     0.67733   0.42838   0.04313   0.00000  Uiso   1.00
H77    H     0.67236   0.38381   0.02210   0.00000  Uiso   1.00
O45    O     0.61034   0.34959   0.03699   0.00000  Uiso   1.00
O46    O     0.58322   0.37878   0.06720   0.00000  Uiso   1.00
H78    H     0.61688   0.43938   0.08190   0.00000  Uiso   1.00
O47    O     0.67728   0.47313   0.06689   0.00000  Uiso   1.00
O48    O     0.70650   0.44606   0.03660   0.00000  Uiso   1.00
Cu1    Cu    0.27312   0.28364   0.40188   0.00000  Uiso   1.00
Cu2    Cu    0.77271   0.78407   0.40193   0.00000  Uiso   1.00
Cu3    Cu    0.27231   0.78325   0.40192   0.00000  Uiso   1.00
C199   C     0.91669   0.57172   0.73470   0.00000  Uiso   1.00
C200   C     0.88462   0.55631   0.74314   0.00000  Uiso   1.00
C201   C     0.86861   0.52432   0.76018   0.00000  Uiso   1.00
C202   C     0.88595   0.50881   0.76822   0.00000  Uiso   1.00
C203   C     0.91850   0.52447   0.75998   0.00000  Uiso   1.00
C204   C     0.93380   0.55647   0.74296   0.00000  Uiso   1.00
H79    H     0.92823   0.59537   0.72210   0.00000  Uiso   1.00
O49    O     0.86777   0.56864   0.73687   0.00000  Uiso   1.00
O50    O     0.83938   0.51276   0.76660   0.00000  Uiso   1.00
H80    H     0.87441   0.48517   0.78083   0.00000  Uiso   1.00
O51    O     0.93647   0.51303   0.76623   0.00000  Uiso   1.00
O52    O     0.96278   0.56892   0.73655   0.00000  Uiso   1.00
C205   C     0.54720   0.17015   0.76801   0.00000  Uiso   1.00
C206   C     0.53138   0.13751   0.76004   0.00000  Uiso   1.00
C207   C     0.49949   0.12241   0.74313   0.00000  Uiso   1.00
C208   C     0.48447   0.13975   0.73476   0.00000  Uiso   1.00
C209   C     0.50004   0.17192   0.74295   0.00000  Uiso   1.00
C210   C     0.53194   0.18773   0.75982   0.00000  Uiso   1.00
H81    H     0.57078   0.18158   0.78051   0.00000  Uiso   1.00
O53    O     0.54258   0.11930   0.76644   0.00000  Uiso   1.00
O54    O     0.48687   0.09335   0.73691   0.00000  Uiso   1.00
H82    H     0.46089   0.12832   0.72226   0.00000  Uiso   1.00
O55    O     0.48794   0.18900   0.73661   0.00000  Uiso   1.00
O56    O     0.54369   0.21705   0.76600   0.00000  Uiso   1.00
C211   C     0.91643   0.13964   0.73476   0.00000  Uiso   1.00
C212   C     0.88435   0.12319   0.74316   0.00000  Uiso   1.00
C213   C     0.86815   0.13923   0.76048   0.00000  Uiso   1.00
C214   C     0.88526   0.17186   0.76889   0.00000  Uiso   1.00
C215   C     0.91782   0.18852   0.76070   0.00000  Uiso   1.00
C216   C     0.93331   0.17178   0.74334   0.00000  Uiso   1.00
H83    H     0.92816   0.12753   0.72193   0.00000  Uiso   1.00
O57    O     0.86769   0.09422   0.73663   0.00000  Uiso   1.00
O58    O     0.83896   0.12180   0.76682   0.00000  Uiso   1.00
H84    H     0.87354   0.18396   0.78173   0.00000  Uiso   1.00
O59    O     0.93565   0.21773   0.76724   0.00000  Uiso   1.00
O60    O     0.96225   0.18805   0.73694   0.00000  Uiso   1.00
C217   C     0.01879   0.30976   0.86319   0.00000  Uiso   1.00
C218   C     1.00209   0.28011   0.83496   0.00000  Uiso   1.00
C219   C     0.99224   0.25349   0.87414   0.00000  Uiso   1.00
C220   C     0.99241   0.25710   0.94114   0.00000  Uiso   1.00
C221   C     1.00558   0.28682   0.96943   0.00000  Uiso   1.00
C222   C     0.02235   0.31332   0.93012   0.00000  Uiso   1.00
H85    H     0.02871   0.32958   0.83380   0.00000  Uiso   1.00
O61    O     0.99537   0.27422   0.77613   0.00000  Uiso   1.00
O62    O     0.98307   0.22820   0.84358   0.00000  Uiso   1.00
H86    H     0.98246   0.23729   0.97052   0.00000  Uiso   1.00
O63    O     1.00496   0.29285   0.02837   0.00000  Uiso   1.00
O64    O     0.03857   0.33849   0.96054   0.00000  Uiso   1.00
C223   C     0.79876   0.52925   0.94072   0.00000  Uiso   1.00
C224   C     0.76914   0.51256   0.96892   0.00000  Uiso   1.00
C225   C     0.74267   0.50286   0.92971   0.00000  Uiso   1.00
C226   C     0.74635   0.50300   0.86272   0.00000  Uiso   1.00
C227   C     0.77601   0.51609   0.83448   0.00000  Uiso   1.00
C228   C     0.80240   0.53286   0.87378   0.00000  Uiso   1.00
H87    H     0.81848   0.53911   0.97013   0.00000  Uiso   1.00
O65    O     0.76316   0.50576   0.02774   0.00000  Uiso   1.00
O66    O     0.71745   0.49381   0.96024   0.00000  Uiso   1.00
H88    H     0.72663   0.49311   0.83331   0.00000  Uiso   1.00
O67    O     0.78210   0.51542   0.77558   0.00000  Uiso   1.00
O68    O     0.82754   0.54912   0.84334   0.00000  Uiso   1.00
C229   C     0.52526   0.06280   0.94075   0.00000  Uiso   1.00
C230   C     0.52193   0.06286   0.87379   0.00000  Uiso   1.00
C231   C     0.53872   0.05274   0.83456   0.00000  Uiso   1.00
C232   C     0.55194   0.03615   0.86294   0.00000  Uiso   1.00
C233   C     0.55205   0.03285   0.92991   0.00000  Uiso   1.00
C234   C     0.54190   0.04964   0.96910   0.00000  Uiso   1.00
H89    H     0.51524   0.07284   0.97007   0.00000  Uiso   1.00
O69    O     0.50587   0.07213   0.84329   0.00000  Uiso   1.00
O70    O     0.53934   0.05916   0.77559   0.00000  Uiso   1.00
H90    H     0.56199   0.02613   0.83361   0.00000  Uiso   1.00
O71    O     0.56139   0.01682   0.96045   0.00000  Uiso   1.00
O72    O     0.54834   0.05032   0.02805   0.00000  Uiso   1.00
C235   C     0.79912   0.06532   0.94091   0.00000  Uiso   1.00
C236   C     0.76953   0.05229   0.96931   0.00000  Uiso   1.00
C237   C     0.74311   0.03540   0.93017   0.00000  Uiso   1.00
C238   C     0.74658   0.03901   0.86326   0.00000  Uiso   1.00
C239   C     0.77612   0.05569   0.83491   0.00000  Uiso   1.00
C240   C     0.80263   0.06530   0.87396   0.00000  Uiso   1.00
H91    H     0.81890   0.07523   0.97016   0.00000  Uiso   1.00
O73    O     0.76355   0.05306   0.02821   0.00000  Uiso   1.00
O74    O     0.71809   0.01903   0.96072   0.00000  Uiso   1.00
H92    H     0.72680   0.02912   0.83401   0.00000  Uiso   1.00
O75    O     0.78200   0.06249   0.77610   0.00000  Uiso   1.00
O76    O     0.82775   0.07413   0.84330   0.00000  Uiso   1.00
C241   C     0.01918   0.50344   0.86327   0.00000  Uiso   1.00
C242   C     0.00257   0.51654   0.83473   0.00000  Uiso   1.00
C243   C     0.99250   0.53345   0.87373   0.00000  Uiso   1.00
C244   C     0.99243   0.53017   0.94067   0.00000  Uiso   1.00
C245   C     1.00559   0.51360   0.96923   0.00000  Uiso   1.00
C246   C     0.02250   0.50357   0.93020   0.00000  Uiso   1.00
H93    H     0.02925   0.49338   0.83413   0.00000  Uiso   1.00
O77    O    -0.00387   0.51574   0.77578   0.00000  Uiso   1.00
O78    O     0.98338   0.54959   0.84304   0.00000  Uiso   1.00
H94    H     0.98235   0.54023   0.96981   0.00000  Uiso   1.00
O79    O     1.00486   0.50719   0.02821   0.00000  Uiso   1.00
O80    O     0.03867   0.49452   0.96084   0.00000  Uiso   1.00
C247   C     0.52759   0.25744   0.94046   0.00000  Uiso   1.00
C248   C     0.52403   0.25407   0.87356   0.00000  Uiso   1.00
C249   C     0.54092   0.28061   0.83442   0.00000  Uiso   1.00
C250   C     0.55404   0.31025   0.86287   0.00000  Uiso   1.00
C251   C     0.55404   0.31368   0.92984   0.00000  Uiso   1.00
C252   C     0.54428   0.28702   0.96884   0.00000  Uiso   1.00
H95    H     0.51764   0.23757   0.96968   0.00000  Uiso   1.00
O81    O     0.50769   0.22901   0.84301   0.00000  Uiso   1.00
O82    O     0.54164   0.27468   0.77548   0.00000  Uiso   1.00
H96    H     0.56400   0.33012   0.83365   0.00000  Uiso   1.00
O83    O     0.56299   0.33886   0.96053   0.00000  Uiso   1.00
O84    O     0.55099   0.29281   0.02767   0.00000  Uiso   1.00
loop_
_geom_bond_atom_site_label_1
_geom_bond_atom_site_label_2
_geom_bond_distance
_geom_bond_site_symmetry_2
_ccdc_geom_bond_type
Fe1    O15     1.962   .     S
Fe1    O16     1.982   1_545 S
Fe1    O37     1.988   .     S
Fe1    O38     1.958   .     S
Fe1    O71     1.979   1_554 S
Fe1    O72     1.979   .     S
Fe2    O1      1.981   .     S
Fe2    O2      1.962   .     S
Fe2    O41     1.957   .     S
Fe2    O42     1.987   1_455 S
Fe2    O63     1.980   1_455 S
Fe2    O64     1.980   1_554 S
Fe3    O11     1.963   .     S
Fe3    O12     1.981   .     S
Fe3    O47     1.959   .     S
Fe3    O48     1.989   .     S
Fe3    O65     1.980   .     S
Fe3    O66     1.980   1_554 S
Fe4    O25     1.981   1_545 S
Fe4    O26     1.963   .     S
Fe4    O39     1.958   .     S
Fe4    O40     1.988   .     S
Fe4    O73     1.978   .     S
Fe4    O74     1.978   1_554 S
Fe5    O35     1.982   .     S
Fe5    O36     1.962   .     S
Fe5    O43     1.987   1_455 S
Fe5    O44     1.958   .     S
Fe5    O79     1.977   1_455 S
Fe5    O80     1.976   1_554 S
Fe6    O21     1.963   .     S
Fe6    O22     1.981   .     S
Fe6    O45     1.989   .     S
Fe6    O46     1.959   .     S
Fe6    O83     1.978   1_554 S
Fe6    O84     1.977   .     S
C1     C2      1.534   .     S
C1     C6      1.575   .     S
C1     C11     1.394   .     D
C2     C3      1.569   .     S
C2     C14     1.398   .     D
C3     C4      1.530   .     S
C3     C10     1.393   .     D
C4     C5      1.568   .     S
C4     C7      1.393   .     D
C5     C6      1.533   .     S
C5     C18     1.398   .     D
C6     C15     1.394   .     D
C7     C8      1.532   .     S
C7     H1      1.080   .     S
C8     C9      1.482   .     S
C8     C26     1.388   .     D
C9     C10     1.533   .     S
C9     C23     1.388   .     D
C10    H2      1.080   .     S
C11    C12     1.529   .     S
C11    H3      1.076   .     S
C12    C13     1.482   .     S
C12    C30     1.385   1_455 D
C13    C14     1.536   .     S
C13    C27     1.395   .     D
C14    H4      1.079   .     S
C15    C16     1.529   .     S
C15    H5      1.076   .     S
C16    C17     1.482   .     S
C16    C22     1.385   .     D
C17    C18     1.536   .     S
C17    C19     1.395   .     D
C18    H6      1.079   .     S
C19    C20     1.537   .     S
C19    H7      1.082   .     S
C20    C21     1.451   .     S
C20    O1      1.255   .     D
C21    C22     1.524   .     S
C21    O2      1.243   .     D
C22    H8      1.083   .     S
C23    C24     1.531   .     S
C23    H9      1.082   .     S
C24    C25     1.472   .     S
C24    O3      1.253   .     D
C25    C26     1.531   .     S
C25    O4      1.252   .     D
C26    H10     1.082   .     S
O3     Cu1     1.935   .     S
O4     Cu1     1.934   .     S
C27    C28     1.537   .     S
C27    H11     1.082   .     S
C28    C29     1.451   1_455 S
C28    O5      1.255   .     D
C29    C28     1.451   1_655 S
C29    C30     1.524   .     S
C29    O6      1.244   .     D
C30    C12     1.385   1_655 D
C30    H12     1.083   .     S
O5     Fe9     1.981   1_455 S
O6     Fe9     1.963   .     S
C31    C32     1.534   .     S
C31    C36     1.568   .     S
C31    C41     1.398   .     D
C32    C33     1.575   .     S
C32    C44     1.394   .     D
C33    C34     1.533   .     S
C33    C40     1.394   .     D
C34    C35     1.567   .     S
C34    C37     1.398   .     D
C35    C36     1.530   .     S
C35    C48     1.393   .     D
C36    C45     1.393   .     D
C37    C38     1.535   .     S
C37    H13     1.079   .     S
C38    C39     1.482   .     S
C38    C56     1.395   .     D
C39    C40     1.530   .     S
C39    C53     1.385   .     D
C40    H14     1.077   .     S
C41    C42     1.536   .     S
C41    H15     1.079   .     S
C42    C43     1.482   .     S
C42    C60     1.395   .     D
C43    C44     1.530   .     S
C43    C57     1.385   .     D
C44    H16     1.077   .     S
C45    C46     1.532   .     S
C45    H17     1.080   .     S
C46    C47     1.482   .     S
C46    C52     1.388   .     D
C47    C48     1.532   .     S
C47    C49     1.388   .     D
C48    H18     1.080   .     S
C49    C50     1.530   .     S
C49    H19     1.082   .     S
C50    C51     1.472   .     S
C50    O7      1.252   .     D
C51    C52     1.530   .     S
C51    O8      1.252   .     D
C52    H20     1.082   .     S
C53    C54     1.524   .     S
C53    H21     1.083   .     S
C54    C55     1.451   .     S
C54    O9      1.243   .     D
C55    C56     1.536   .     S
C55    O10     1.255   .     D
C56    H22     1.082   .     S
O7     Cu2     1.933   .     S
O8     Cu2     1.933   .     S
O9     Fe7     1.962   .     S
O10    Fe7     1.981   .     S
C57    C58     1.525   .     S
C57    H23     1.083   .     S
C58    C59     1.451   .     S
C58    O11     1.244   .     D
C59    C60     1.536   .     S
C59    O12     1.255   .     D
C60    H24     1.082   .     S
C61    C62     1.534   .     S
C61    C66     1.570   .     S
C61    C71     1.399   .     D
C62    C63     1.574   .     S
C62    C74     1.393   1_565 D
C63    C64     1.534   .     S
C63    C70     1.393   1_565 D
C64    C65     1.571   .     S
C64    C67     1.399   .     D
C65    C66     1.532   .     S
C65    C78     1.394   .     D
C66    C75     1.394   .     D
C67    C68     1.538   .     S
C67    H25     1.079   .     S
C68    C69     1.482   1_565 S
C68    C86     1.396   .     D
C69    C68     1.482   1_545 S
C69    C70     1.527   .     S
C69    C83     1.385   .     D
C70    C63     1.393   1_545 D
C70    H26     1.076   .     S
C71    C72     1.538   1_565 S
C71    H27     1.079   .     S
C72    C71     1.538   1_545 S
C72    C73     1.482   .     S
C72    C90     1.396   .     D
C73    C74     1.527   .     S
C73    C87     1.384   .     D
C74    C62     1.393   1_545 D
C74    H28     1.076   .     S
C75    C76     1.534   .     S
C75    H29     1.080   .     S
C76    C77     1.482   .     S
C76    C82     1.389   .     D
C77    C78     1.534   .     S
C77    C79     1.389   .     D
C78    H30     1.080   .     S
C79    C80     1.532   .     S
C79    H31     1.082   .     S
C80    C81     1.472   .     S
C80    O13     1.253   .     D
C81    C82     1.532   .     S
C81    O14     1.253   .     D
C82    H32     1.082   .     S
C83    C84     1.523   .     S
C83    H33     1.083   .     S
C84    C85     1.451   1_545 S
C84    O15     1.244   .     D
C85    C84     1.451   1_565 S
C85    C86     1.538   .     S
C85    O16     1.255   .     D
C86    H34     1.082   .     S
O13    Cu3     1.938   .     S
O14    Cu3     1.938   .     S
O16    Fe1     1.982   1_565 S
C87    C88     1.523   .     S
C87    H35     1.083   .     S
C88    C89     1.451   .     S
C88    O17     1.244   .     D
C89    C90     1.538   .     S
C89    O18     1.255   .     D
C90    H36     1.082   1_545 S
O17    Fe8     1.962   .     S
O18    Fe8     1.982   .     S
H36    C90     1.082   1_565 S
C91    C92     1.531   .     S
C91    C96     1.570   .     S
C91    C101    1.398   .     D
C92    C93     1.568   .     S
C92    C104    1.391   .     D
C93    C94     1.531   .     S
C93    C100    1.391   .     D
C94    C95     1.570   .     S
C94    C97     1.398   .     D
C95    C96     1.532   .     S
C95    C108    1.393   .     D
C96    C105    1.393   .     D
C97    C98     1.537   .     S
C97    H37     1.079   .     S
C98    C99     1.484   .     S
C98    C116    1.395   .     D
C99    C100    1.528   .     S
C99    C113    1.385   .     D
C100   H38     1.079   .     S
C101   C102    1.537   .     S
C101   H39     1.079   .     S
C102   C103    1.484   .     S
C102   C120    1.395   .     D
C103   C104    1.528   .     S
C103   C117    1.385   .     D
C104   H40     1.079   .     S
C105   C106    1.533   .     S
C105   H41     1.079   .     S
C106   C107    1.482   .     S
C106   C112    1.388   .     D
C107   C108    1.533   .     S
C107   C109    1.388   .     D
C108   H42     1.079   .     S
C109   C110    1.531   .     S
C109   H43     1.082   .     S
C110   C111    1.472   .     S
C110   O19     1.253   .     D
C111   C112    1.531   .     S
C111   O20     1.252   .     D
C112   H44     1.082   .     S
C113   C114    1.524   .     S
C113   H45     1.083   .     S
C114   C115    1.451   .     S
C114   O21     1.244   .     D
C115   C116    1.536   .     S
C115   O22     1.254   .     D
C116   H46     1.082   .     S
O19    Cu1     1.935   .     S
O20    Cu1     1.934   .     S
C117   C118    1.524   .     S
C117   H47     1.083   .     S
C118   C119    1.451   .     S
C118   O23     1.244   .     D
C119   C120    1.536   .     S
C119   O24     1.254   .     D
C120   H48     1.082   .     S
O23    Fe11    1.962   .     S
O24    Fe11    1.981   .     S
C121   C122    1.531   .     S
C121   C126    1.568   .     S
C121   C131    1.392   1_565 D
C122   C123    1.569   .     S
C122   C134    1.398   .     D
C123   C124    1.532   .     S
C123   C130    1.393   .     D
C124   C125    1.569   .     S
C124   C127    1.393   .     D
C125   C126    1.531   .     S
C125   C138    1.398   .     D
C126   C135    1.391   1_565 D
C127   C128    1.532   .     S
C127   H49     1.079   .     S
C128   C129    1.482   .     S
C128   C146    1.388   .     D
C129   C130    1.532   .     S
C129   C143    1.388   .     D
C130   H50     1.079   .     S
C131   C121    1.392   1_545 D
C131   C132    1.529   .     S
C131   H51     1.079   .     S
C132   C133    1.484   .     S
C132   C150    1.385   .     D
C133   C134    1.537   1_545 S
C133   C147    1.395   .     D
C134   C133    1.537   1_565 S
C134   H52     1.079   .     S
C135   C126    1.391   1_545 D
C135   C136    1.529   .     S
C135   H53     1.079   .     S
C136   C137    1.484   1_545 S
C136   C142    1.385   .     D
C137   C136    1.484   1_565 S
C137   C138    1.536   .     S
C137   C139    1.395   .     D
C138   H54     1.079   .     S
C139   C140    1.536   1_565 S
C139   H55     1.082   .     S
C140   C139    1.536   1_545 S
C140   C141    1.452   .     S
C140   O25     1.254   1_545 D
C141   C142    1.524   .     S
C141   O26     1.244   .     D
C142   H56     1.083   .     S
C143   C144    1.530   .     S
C143   H57     1.082   .     S
C144   C145    1.472   .     S
C144   O27     1.252   .     D
C145   C146    1.530   .     S
C145   O28     1.252   .     D
C146   H58     1.082   .     S
O25    Fe4     1.981   1_565 S
O25    C140    1.254   1_565 D
O27    Cu2     1.933   .     S
O28    Cu2     1.933   .     S
C147   C148    1.536   .     S
C147   H59     1.082   1_545 S
C148   C149    1.451   .     S
C148   O29     1.254   .     D
C149   C150    1.524   .     S
C149   O30     1.244   .     D
C150   H60     1.083   .     S
H59    C147    1.082   1_565 S
O29    Fe12    1.981   .     S
O30    Fe12    1.963   .     S
C151   C152    1.531   .     S
C151   C156    1.567   .     S
C151   C161    1.391   .     D
C152   C153    1.572   .     S
C152   C164    1.399   .     D
C153   C154    1.534   .     S
C153   C160    1.394   .     D
C154   C155    1.572   .     S
C154   C157    1.394   .     D
C155   C156    1.531   .     S
C155   C168    1.399   .     D
C156   C165    1.391   .     D
C157   C158    1.534   .     S
C157   H61     1.079   .     S
C158   C159    1.482   .     S
C158   C176    1.389   .     D
C159   C160    1.534   .     S
C159   C173    1.389   .     D
C160   H62     1.079   .     S
C161   C162    1.527   .     S
C161   H63     1.079   .     S
C162   C163    1.484   .     S
C162   C180    1.384   .     D
C163   C164    1.539   .     S
C163   C177    1.395   .     D
C164   H64     1.079   .     S
C165   C166    1.527   .     S
C165   H65     1.079   .     S
C166   C167    1.484   .     S
C166   C172    1.385   .     D
C167   C168    1.539   .     S
C167   C169    1.395   .     D
C168   H66     1.079   .     S
C169   C170    1.538   .     S
C169   H67     1.082   .     S
C170   C171    1.451   1_455 S
C170   O31     1.254   .     D
C171   C170    1.451   1_655 S
C171   C172    1.523   1_655 S
C171   O32     1.244   .     D
C172   C171    1.523   1_455 S
C172   H68     1.083   1_455 S
C173   C174    1.532   .     S
C173   H69     1.082   .     S
C174   C175    1.472   .     S
C174   O33     1.253   .     D
C175   C176    1.532   .     S
C175   O34     1.253   .     D
C176   H70     1.082   .     S
O31    Fe10    1.982   1_455 S
O32    Fe10    1.962   .     S
H68    C172    1.083   1_655 S
O33    Cu3     1.938   .     S
O34    Cu3     1.938   .     S
C177   C178    1.538   .     S
C177   H71     1.082   .     S
C178   C179    1.451   .     S
C178   O35     1.254   .     D
C179   C180    1.523   .     S
C179   O36     1.244   .     D
C180   H72     1.083   .     S
Fe7    O49     1.958   .     S
Fe7    O50     1.988   .     S
Fe7    O67     1.980   .     S
Fe7    O68     1.980   .     S
Fe8    O53     1.987   .     S
Fe8    O54     1.958   .     S
Fe8    O69     1.979   .     S
Fe8    O70     1.979   .     S
Fe9    O5      1.981   1_655 S
Fe9    O59     1.989   .     S
Fe9    O60     1.959   .     S
Fe9    O61     1.979   .     S
Fe9    O62     1.980   .     S
Fe10   O31     1.982   1_655 S
Fe10   O51     1.987   .     S
Fe10   O52     1.958   .     S
Fe10   O77     1.977   1_655 S
Fe10   O78     1.976   .     S
Fe11   O55     1.958   .     S
Fe11   O56     1.987   .     S
Fe11   O81     1.977   .     S
Fe11   O82     1.977   .     S
Fe12   O57     1.959   .     S
Fe12   O58     1.989   .     S
Fe12   O75     1.977   .     S
Fe12   O76     1.978   .     S
C181   C182    1.456   .     A
C181   C186    1.456   .     A
C181   H73     1.082   .     S
C182   C183    1.464   .     S
C182   O37     1.313   .     A
C183   C184    1.436   .     A
C183   O38     1.297   .     A
C184   C185    1.436   .     A
C184   H74     1.082   1_545 S
C185   C186    1.464   .     S
C185   O39     1.297   .     A
C186   O40     1.313   .     A
H74    C184    1.082   1_565 S
C187   C188    1.436   .     A
C187   C192    1.435   .     A
C187   H75     1.082   .     S
C188   C189    1.464   .     S
C188   O41     1.296   .     A
C189   C190    1.456   1_455 A
C189   O42     1.313   1_455 A
C190   C189    1.456   1_655 A
C190   C191    1.456   1_655 A
C190   H76     1.082   .     S
C191   C190    1.456   1_455 A
C191   C192    1.464   .     S
C191   O43     1.312   1_455 A
C192   O44     1.297   .     A
O42    Fe2     1.987   1_655 S
O42    C189    1.313   1_655 A
O43    Fe5     1.987   1_655 S
O43    C191    1.312   1_655 A
C193   C194    1.457   .     A
C193   C198    1.457   .     A
C193   H77     1.082   .     S
C194   C195    1.464   .     S
C194   O45     1.313   .     A
C195   C196    1.436   .     A
C195   O46     1.298   .     A
C196   C197    1.437   .     A
C196   H78     1.082   .     S
C197   C198    1.464   .     S
C197   O47     1.297   .     A
C198   O48     1.314   .     A
C199   C200    1.436   .     A
C199   C204    1.436   .     A
C199   H79     1.082   .     S
C200   C201    1.464   .     S
C200   O49     1.296   .     A
C201   C202    1.456   .     A
C201   O50     1.313   .     A
C202   C203    1.457   .     A
C202   H80     1.082   .     S
C203   C204    1.464   .     S
C203   O51     1.312   .     A
C204   O52     1.297   .     A
C205   C206    1.456   .     A
C205   C210    1.456   .     A
C205   H81     1.082   .     S
C206   C207    1.464   .     S
C206   O53     1.313   .     A
C207   C208    1.436   .     A
C207   O54     1.296   .     A
C208   C209    1.436   .     A
C208   H82     1.082   .     S
C209   C210    1.464   .     S
C209   O55     1.297   .     A
C210   O56     1.312   .     A
C211   C212    1.436   .     A
C211   C216    1.437   .     A
C211   H83     1.082   .     S
C212   C213    1.464   .     S
C212   O57     1.297   .     A
C213   C214    1.457   .     A
C213   O58     1.313   .     A
C214   C215    1.457   .     A
C214   H84     1.082   .     S
C215   C216    1.464   .     S
C215   O59     1.314   .     A
C216   O60     1.297   .     A
C217   C218    1.451   1_455 A
C217   C222    1.450   .     A
C217   H85     1.082   .     S
C218   C217    1.451   1_655 A
C218   C219    1.459   .     S
C218   O61     1.306   .     A
C219   C220    1.450   .     A
C219   O62     1.308   .     A
C220   C221    1.451   .     A
C220   H86     1.082   .     S
C221   C222    1.459   1_655 S
C221   O63     1.306   1_556 A
C222   C221    1.459   1_455 S
C222   O64     1.308   .     A
O63    Fe2     1.980   1_655 S
O63    C221    1.306   1_554 A
O64    Fe2     1.980   1_556 S
C223   C224    1.451   .     A
C223   C228    1.450   .     A
C223   H87     1.082   .     S
C224   C225    1.459   .     S
C224   O65     1.306   1_556 A
C225   C226    1.450   .     A
C225   O66     1.308   .     A
C226   C227    1.451   .     A
C226   H88     1.082   .     S
C227   C228    1.459   .     S
C227   O67     1.306   .     A
C228   O68     1.308   .     A
O65    C224    1.306   1_554 A
O66    Fe3     1.980   1_556 S
C229   C230    1.450   .     A
C229   C234    1.450   .     A
C229   H89     1.082   .     S
C230   C231    1.460   .     S
C230   O69     1.307   .     A
C231   C232    1.450   .     A
C231   O70     1.306   .     A
C232   C233    1.450   .     A
C232   H90     1.082   .     S
C233   C234    1.460   .     S
C233   O71     1.307   .     A
C234   O72     1.306   1_556 A
O71    Fe1     1.979   1_556 S
O72    C234    1.306   1_554 A
C235   C236    1.449   .     A
C235   C240    1.449   .     A
C235   H91     1.082   .     S
C236   C237    1.459   .     S
C236   O73     1.306   1_556 A
C237   C238    1.449   .     A
C237   O74     1.306   .     A
C238   C239    1.449   .     A
C238   H92     1.082   .     S
C239   C240    1.459   .     S
C239   O75     1.306   .     A
C240   O76     1.306   .     A
O73    C236    1.306   1_554 A
O74    Fe4     1.978   1_556 S
C241   C242    1.448   .     A
C241   C246    1.448   .     A
C241   H93     1.082   .     S
C242   C243    1.460   1_455 S
C242   O77     1.305   .     A
C243   C242    1.460   1_655 S
C243   C244    1.449   .     A
C243   O78     1.306   .     A
C244   C245    1.449   .     A
C244   H94     1.082   .     S
C245   C246    1.460   1_655 S
C245   O79     1.306   1_556 A
C246   C245    1.460   1_455 S
C246   O80     1.306   .     A
O77    Fe10    1.977   1_455 S
O79    Fe5     1.977   1_655 S
O79    C245    1.306   1_554 A
O80    Fe5     1.976   1_556 S
C247   C248    1.449   .     A
C247   C252    1.449   .     A
C247   H95     1.082   .     S
C248   C249    1.459   .     S
C248   O81     1.306   .     A
C249   C250    1.449   .     A
C249   O82     1.306   .     A
C250   C251    1.449   .     A
C250   H96     1.082   .     S
C251   C252    1.459   .     S
C251   O83     1.306   .     A
C252   O84     1.306   1_556 A
O83    Fe6     1.978   1_556 S
O84    C252    1.306   1_554 A
