data_etc-TN_O-Zntet
_audit_creation_date              2021-11-06
_audit_creation_method            'Materials Studio'
_symmetry_space_group_name_H-M    'P1'
_symmetry_Int_Tables_number       1
_symmetry_cell_setting            triclinic
loop_
_symmetry_equiv_pos_as_xyz
  x,y,z
_cell_length_a                    73.8890
_cell_length_b                    73.9037
_cell_length_c                    29.8861
_cell_angle_alpha                 90.0177
_cell_angle_beta                  89.9750
_cell_angle_gamma                 120.4271
loop_
_atom_site_label
_atom_site_type_symbol
_atom_site_fract_x
_atom_site_fract_y
_atom_site_fract_z
_atom_site_U_iso_or_equiv
_atom_site_adp_type
_atom_site_occupancy
C1     C     0.66602   0.35330   0.25093   0.00000  Uiso   1.00
C2     C     0.64661   0.33388   0.24905   0.00000  Uiso   1.00
C3     C     0.64653   0.31451   0.25008   0.00000  Uiso   1.00
C4     C     0.66588   0.31462   0.24915   0.00000  Uiso   1.00
C5     C     0.68532   0.33406   0.25078   0.00000  Uiso   1.00
C6     C     0.68540   0.35340   0.24990   0.00000  Uiso   1.00
C7     C     0.66520   0.29509   0.24571   0.00000  Uiso   1.00
C8     C     0.64631   0.27598   0.24737   0.00000  Uiso   1.00
C9     C     0.62732   0.27584   0.25163   0.00000  Uiso   1.00
C10    C     0.62753   0.29485   0.25301   0.00000  Uiso   1.00
C11    C     0.66542   0.37217   0.25475   0.00000  Uiso   1.00
C12    C     0.64657   0.37225   0.25300   0.00000  Uiso   1.00
C13    C     0.62759   0.35325   0.24730   0.00000  Uiso   1.00
C14    C     0.62772   0.33443   0.24529   0.00000  Uiso   1.00
C15    C     0.70506   0.37241   0.24705   0.00000  Uiso   1.00
C16    C     0.72408   0.37264   0.24842   0.00000  Uiso   1.00
C17    C     0.72396   0.35365   0.25260   0.00000  Uiso   1.00
C18    C     0.70485   0.33476   0.25421   0.00000  Uiso   1.00
C19    C     0.74304   0.35377   0.25456   0.00000  Uiso   1.00
C20    C     0.76209   0.37270   0.25215   0.00000  Uiso   1.00
C21    C     0.76224   0.39178   0.24816   0.00000  Uiso   1.00
C22    C     0.74331   0.39171   0.24613   0.00000  Uiso   1.00
C23    C     0.60825   0.25662   0.25398   0.00000  Uiso   1.00
C24    C     0.60819   0.23770   0.25193   0.00000  Uiso   1.00
C25    C     0.62729   0.23786   0.24785   0.00000  Uiso   1.00
C26    C     0.64621   0.25691   0.24539   0.00000  Uiso   1.00
H1     H     0.67910   0.29412   0.24070   0.00000  Uiso   1.00
H2     H     0.61253   0.29371   0.25758   0.00000  Uiso   1.00
H3     H     0.67936   0.38716   0.26020   0.00000  Uiso   1.00
H4     H     0.61274   0.32049   0.23974   0.00000  Uiso   1.00
H5     H     0.70620   0.38740   0.24258   0.00000  Uiso   1.00
H6     H     0.70584   0.32087   0.25918   0.00000  Uiso   1.00
H7     H     0.74319   0.33923   0.25764   0.00000  Uiso   1.00
O1     O     0.78107   0.37291   0.25359   0.00000  Uiso   1.00
O2     O     0.78139   0.41063   0.24640   0.00000  Uiso   1.00
H8     H     0.74366   0.40648   0.24295   0.00000  Uiso   1.00
H9     H     0.59347   0.25626   0.25723   0.00000  Uiso   1.00
O3     O     0.58935   0.21855   0.25374   0.00000  Uiso   1.00
O4     O     0.62709   0.21889   0.24639   0.00000  Uiso   1.00
H10    H     0.66076   0.25678   0.24224   0.00000  Uiso   1.00
C27    C     0.60860   0.35329   0.24419   0.00000  Uiso   1.00
C28    C     0.60856   0.37213   0.24732   0.00000  Uiso   1.00
C29    C     0.62758   0.39117   0.25362   0.00000  Uiso   1.00
C30    C     0.64646   0.39120   0.25640   0.00000  Uiso   1.00
H11    H     0.59385   0.33877   0.23957   0.00000  Uiso   1.00
O5     O     0.58979   0.37229   0.24438   0.00000  Uiso   1.00
O6     O     0.62735   0.40989   0.25681   0.00000  Uiso   1.00
H12    H     0.66097   0.40597   0.26098   0.00000  Uiso   1.00
C31    C     0.33396   0.64671   0.75038   0.00000  Uiso   1.00
C32    C     0.35340   0.66617   0.74961   0.00000  Uiso   1.00
C33    C     0.35347   0.68555   0.75033   0.00000  Uiso   1.00
C34    C     0.33410   0.68544   0.74948   0.00000  Uiso   1.00
C35    C     0.31465   0.66597   0.75057   0.00000  Uiso   1.00
C36    C     0.31455   0.64662   0.74968   0.00000  Uiso   1.00
C37    C     0.33479   0.70500   0.74687   0.00000  Uiso   1.00
C38    C     0.35367   0.72412   0.74823   0.00000  Uiso   1.00
C39    C     0.37270   0.72426   0.75119   0.00000  Uiso   1.00
C40    C     0.37249   0.70526   0.75240   0.00000  Uiso   1.00
C41    C     0.33453   0.62777   0.75247   0.00000  Uiso   1.00
C42    C     0.35339   0.62769   0.75135   0.00000  Uiso   1.00
C43    C     0.37247   0.64678   0.74861   0.00000  Uiso   1.00
C44    C     0.37236   0.66561   0.74749   0.00000  Uiso   1.00
C45    C     0.29485   0.62759   0.74758   0.00000  Uiso   1.00
C46    C     0.27584   0.62736   0.74879   0.00000  Uiso   1.00
C47    C     0.27596   0.64637   0.75181   0.00000  Uiso   1.00
C48    C     0.29507   0.66526   0.75322   0.00000  Uiso   1.00
C49    C     0.25688   0.64629   0.75305   0.00000  Uiso   1.00
C50    C     0.23783   0.62733   0.75139   0.00000  Uiso   1.00
C51    C     0.23768   0.60821   0.74889   0.00000  Uiso   1.00
C52    C     0.25661   0.60826   0.74742   0.00000  Uiso   1.00
C53    C     0.39179   0.74350   0.75251   0.00000  Uiso   1.00
C54    C     0.39183   0.76241   0.75105   0.00000  Uiso   1.00
C55    C     0.37269   0.76224   0.74862   0.00000  Uiso   1.00
C56    C     0.35374   0.74318   0.74702   0.00000  Uiso   1.00
H13    H     0.32092   0.70608   0.74277   0.00000  Uiso   1.00
H14    H     0.38759   0.70656   0.75584   0.00000  Uiso   1.00
H15    H     0.32060   0.61262   0.75583   0.00000  Uiso   1.00
H16    H     0.38750   0.67956   0.74413   0.00000  Uiso   1.00
H17    H     0.29357   0.61251   0.74411   0.00000  Uiso   1.00
H18    H     0.29397   0.67912   0.75736   0.00000  Uiso   1.00
H19    H     0.25674   0.66086   0.75504   0.00000  Uiso   1.00
O7     O     0.21885   0.62714   0.75219   0.00000  Uiso   1.00
O8     O     0.21853   0.58934   0.74791   0.00000  Uiso   1.00
H20    H     0.25625   0.59345   0.74539   0.00000  Uiso   1.00
H21    H     0.40662   0.74386   0.75448   0.00000  Uiso   1.00
O9     O     0.41069   0.78156   0.75196   0.00000  Uiso   1.00
O10    O     0.37286   0.78120   0.74784   0.00000  Uiso   1.00
H22    H     0.33916   0.74331   0.74507   0.00000  Uiso   1.00
C57    C     0.39153   0.64681   0.74731   0.00000  Uiso   1.00
C58    C     0.39150   0.62791   0.74871   0.00000  Uiso   1.00
C59    C     0.37233   0.60872   0.75116   0.00000  Uiso   1.00
C60    C     0.35341   0.60866   0.75262   0.00000  Uiso   1.00
H23    H     0.40638   0.66142   0.74538   0.00000  Uiso   1.00
O11    O     0.41034   0.62782   0.74771   0.00000  Uiso   1.00
O12    O     0.37247   0.58991   0.75206   0.00000  Uiso   1.00
H24    H     0.33880   0.59379   0.75455   0.00000  Uiso   1.00
C61    C     0.52210   0.04841   0.27404   0.00000  Uiso   1.00
C62    C     0.53476   0.06757   0.29764   0.00000  Uiso   1.00
C63    C     0.54469   0.08701   0.27394   0.00000  Uiso   1.00
C64    C     0.54422   0.08701   0.22624   0.00000  Uiso   1.00
C65    C     0.53432   0.06761   0.20251   0.00000  Uiso   1.00
C66    C     0.52205   0.04839   0.22616   0.00000  Uiso   1.00
C67    C     0.55304   0.10656   0.20353   0.00000  Uiso   1.00
C68    C     0.56270   0.12562   0.22658   0.00000  Uiso   1.00
C69    C     0.56357   0.12565   0.27356   0.00000  Uiso   1.00
C70    C     0.55445   0.10660   0.29666   0.00000  Uiso   1.00
C71    C     0.51037   0.02965   0.29925   0.00000  Uiso   1.00
C72    C     0.51215   0.02935   0.34574   0.00000  Uiso   1.00
C73    C     0.52593   0.04799   0.36857   0.00000  Uiso   1.00
C74    C     0.53705   0.06672   0.34470   0.00000  Uiso   1.00
C75    C     0.51067   0.02957   0.20099   0.00000  Uiso   1.00
C76    C     0.51223   0.02935   0.15443   0.00000  Uiso   1.00
C77    C     0.52561   0.04811   0.13151   0.00000  Uiso   1.00
C78    C     0.53649   0.06686   0.15539   0.00000  Uiso   1.00
C79    C     0.52785   0.04776   0.08473   0.00000  Uiso   1.00
C80    C     0.51647   0.02882   0.06167   0.00000  Uiso   1.00
C81    C     0.50321   0.01058   0.08395   0.00000  Uiso   1.00
C82    C     0.50090   0.01045   0.13033   0.00000  Uiso   1.00
C83    C     0.57323   0.14481   0.29697   0.00000  Uiso   1.00
C84    C     0.58186   0.16377   0.27367   0.00000  Uiso   1.00
C85    C     0.58066   0.16373   0.22658   0.00000  Uiso   1.00
C86    C     0.57118   0.14475   0.20323   0.00000  Uiso   1.00
H25    H     0.55187   0.10749   0.16774   0.00000  Uiso   1.00
H26    H     0.55450   0.10768   0.33260   0.00000  Uiso   1.00
H27    H     0.49965   0.01484   0.28403   0.00000  Uiso   1.00
H28    H     0.54781   0.08033   0.36380   0.00000  Uiso   1.00
H29    H     0.50058   0.01460   0.21631   0.00000  Uiso   1.00
H30    H     0.54710   0.08059   0.13638   0.00000  Uiso   1.00
H31    H     0.53819   0.06198   0.06641   0.00000  Uiso   1.00
O13    O     0.51767   0.02717   0.01583   0.00000  Uiso   1.00
O14    O     0.49258   0.99276   0.05794   0.00000  Uiso   1.00
H32    H     0.49046   0.99582   0.14723   0.00000  Uiso   1.00
H33    H     0.57407   0.14507   0.33320   0.00000  Uiso   1.00
O15    O     0.59175   0.18285   0.29660   0.00000  Uiso   1.00
O16    O     0.58908   0.18277   0.20370   0.00000  Uiso   1.00
H34    H     0.57047   0.14497   0.16701   0.00000  Uiso   1.00
C87    C     0.52826   0.04760   0.41530   0.00000  Uiso   1.00
C88    C     0.51663   0.02870   0.43840   0.00000  Uiso   1.00
C89    C     0.50304   0.01056   0.41620   0.00000  Uiso   1.00
C90    C     0.50058   0.01050   0.36987   0.00000  Uiso   1.00
H35    H     0.53885   0.06173   0.43357   0.00000  Uiso   1.00
O17    O     0.51789   0.02702   0.48419   0.00000  Uiso   1.00
O18    O     0.49226   0.99276   0.44224   0.00000  Uiso   1.00
H36    H     0.48986   0.99595   0.35304   0.00000  Uiso   1.00
C91    C     0.45633   0.54282   0.72603   0.00000  Uiso   1.00
C92    C     0.45685   0.54336   0.77381   0.00000  Uiso   1.00
C93    C     0.46647   0.53368   0.79775   0.00000  Uiso   1.00
C94    C     0.47630   0.52421   0.77386   0.00000  Uiso   1.00
C95    C     0.47659   0.52451   0.72605   0.00000  Uiso   1.00
C96    C     0.46581   0.53296   0.70219   0.00000  Uiso   1.00
C97    C     0.48520   0.51420   0.79873   0.00000  Uiso   1.00
C98    C     0.48534   0.51416   0.84540   0.00000  Uiso   1.00
C99    C     0.47593   0.52373   0.86894   0.00000  Uiso   1.00
C100   C     0.46646   0.53302   0.84536   0.00000  Uiso   1.00
C101   C     0.44667   0.55268   0.70335   0.00000  Uiso   1.00
C102   C     0.43737   0.56233   0.72637   0.00000  Uiso   1.00
C103   C     0.43794   0.56291   0.77328   0.00000  Uiso   1.00
C104   C     0.44768   0.55375   0.79635   0.00000  Uiso   1.00
C105   C     0.46490   0.53133   0.65469   0.00000  Uiso   1.00
C106   C     0.47516   0.52285   0.63108   0.00000  Uiso   1.00
C107   C     0.48671   0.51555   0.65449   0.00000  Uiso   1.00
C108   C     0.48749   0.51656   0.70111   0.00000  Uiso   1.00
C109   C     0.49727   0.50717   0.63068   0.00000  Uiso   1.00
C110   C     0.49607   0.50621   0.58405   0.00000  Uiso   1.00
C111   C     0.48478   0.51333   0.56123   0.00000  Uiso   1.00
C112   C     0.47421   0.52172   0.58401   0.00000  Uiso   1.00
C113   C     0.47598   0.52368   0.91609   0.00000  Uiso   1.00
C114   C     0.48546   0.51417   0.93881   0.00000  Uiso   1.00
C115   C     0.49456   0.50474   0.91585   0.00000  Uiso   1.00
C116   C     0.49468   0.50453   0.86915   0.00000  Uiso   1.00
H37    H     0.49183   0.50578   0.78305   0.00000  Uiso   1.00
H38    H     0.45902   0.53938   0.86571   0.00000  Uiso   1.00
H39    H     0.44630   0.55355   0.66751   0.00000  Uiso   1.00
H40    H     0.44793   0.55531   0.83211   0.00000  Uiso   1.00
H41    H     0.45612   0.53625   0.63457   0.00000  Uiso   1.00
H42    H     0.49716   0.51134   0.71668   0.00000  Uiso   1.00
H43    H     0.50620   0.50136   0.64798   0.00000  Uiso   1.00
O19    O     0.50593   0.49822   0.55828   0.00000  Uiso   1.00
O20    O     0.48462   0.51168   0.51519   0.00000  Uiso   1.00
H44    H     0.46548   0.52732   0.56522   0.00000  Uiso   1.00
H45    H     0.46881   0.53094   0.93496   0.00000  Uiso   1.00
O21    O     0.48631   0.51359   0.98492   0.00000  Uiso   1.00
O22    O     0.50340   0.49569   0.94155   0.00000  Uiso   1.00
H46    H     0.50201   0.49703   0.85176   0.00000  Uiso   1.00
C117   C     0.42882   0.57283   0.79670   0.00000  Uiso   1.00
C118   C     0.41912   0.58198   0.77338   0.00000  Uiso   1.00
C119   C     0.41842   0.58127   0.72624   0.00000  Uiso   1.00
C120   C     0.42759   0.57157   0.70291   0.00000  Uiso   1.00
H47    H     0.42918   0.57345   0.83295   0.00000  Uiso   1.00
O23    O     0.41006   0.59186   0.79635   0.00000  Uiso   1.00
O24    O     0.40850   0.59030   0.70328   0.00000  Uiso   1.00
H48    H     0.42702   0.57123   0.66667   0.00000  Uiso   1.00
C121   C     0.91297   0.45539   0.22612   0.00000  Uiso   1.00
C122   C     0.91296   0.45585   0.27381   0.00000  Uiso   1.00
C123   C     0.93237   0.46573   0.29755   0.00000  Uiso   1.00
C124   C     0.95160   0.47796   0.27387   0.00000  Uiso   1.00
C125   C     0.95159   0.47791   0.22601   0.00000  Uiso   1.00
C126   C     0.93241   0.46531   0.20239   0.00000  Uiso   1.00
C127   C     0.97043   0.48931   0.29905   0.00000  Uiso   1.00
C128   C     0.97064   0.48777   0.34560   0.00000  Uiso   1.00
C129   C     0.95187   0.47444   0.36855   0.00000  Uiso   1.00
C130   C     0.93311   0.46360   0.34468   0.00000  Uiso   1.00
C131   C     0.89337   0.44565   0.20340   0.00000  Uiso   1.00
C132   C     0.87432   0.43651   0.22651   0.00000  Uiso   1.00
C133   C     0.87434   0.43736   0.27349   0.00000  Uiso   1.00
C134   C     0.89341   0.44702   0.29654   0.00000  Uiso   1.00
C135   C     0.93325   0.46307   0.15532   0.00000  Uiso   1.00
C136   C     0.95199   0.47414   0.13144   0.00000  Uiso   1.00
C137   C     0.97065   0.48784   0.15429   0.00000  Uiso   1.00
C138   C     0.97036   0.48958   0.20079   0.00000  Uiso   1.00
C139   C     0.98953   0.49936   0.13016   0.00000  Uiso   1.00
C140   C     0.98946   0.49693   0.08383   0.00000  Uiso   1.00
C141   C     0.97129   0.48344   0.06159   0.00000  Uiso   1.00
C142   C     0.95238   0.47186   0.08469   0.00000  Uiso   1.00
C143   C     0.95221   0.47223   0.41534   0.00000  Uiso   1.00
C144   C     0.97117   0.48359   0.43838   0.00000  Uiso   1.00
C145   C     0.98942   0.49679   0.41606   0.00000  Uiso   1.00
C146   C     0.98955   0.49907   0.36968   0.00000  Uiso   1.00
H49    H     0.98541   0.49937   0.28372   0.00000  Uiso   1.00
H50    H     0.91937   0.45303   0.36373   0.00000  Uiso   1.00
H51    H     0.89229   0.44561   0.16747   0.00000  Uiso   1.00
H52    H     0.89246   0.44816   0.33233   0.00000  Uiso   1.00
H53    H     0.91964   0.45236   0.13617   0.00000  Uiso   1.00
H54    H     0.98519   0.50023   0.21601   0.00000  Uiso   1.00
H55    H     0.00410   0.51001   0.14702   0.00000  Uiso   1.00
O25    O     0.00727   0.50767   0.05779   0.00000  Uiso   1.00
O26    O     0.97296   0.48222   0.01578   0.00000  Uiso   1.00
H56    H     0.93822   0.46134   0.06639   0.00000  Uiso   1.00
H57    H     0.93798   0.46195   0.43369   0.00000  Uiso   1.00
O27    O     0.97281   0.48242   0.48422   0.00000  Uiso   1.00
O28    O     0.00726   0.50739   0.44205   0.00000  Uiso   1.00
H58    H     0.00419   0.50946   0.35276   0.00000  Uiso   1.00
C147   C     0.85521   0.42886   0.29685   0.00000  Uiso   1.00
C148   C     0.83622   0.41936   0.27349   0.00000  Uiso   1.00
C149   C     0.83619   0.41819   0.22640   0.00000  Uiso   1.00
C150   C     0.85516   0.42685   0.20309   0.00000  Uiso   1.00
H59    H     0.85498   0.42955   0.33306   0.00000  Uiso   1.00
O29    O     0.81717   0.41091   0.29638   0.00000  Uiso   1.00
O30    O     0.81712   0.40829   0.20347   0.00000  Uiso   1.00
H60    H     0.85490   0.42602   0.16686   0.00000  Uiso   1.00
C151   C     0.45550   0.91307   0.77390   0.00000  Uiso   1.00
C152   C     0.45566   0.91308   0.72621   0.00000  Uiso   1.00
C153   C     0.46555   0.93248   0.70248   0.00000  Uiso   1.00
C154   C     0.47801   0.95168   0.72611   0.00000  Uiso   1.00
C155   C     0.47794   0.95169   0.77397   0.00000  Uiso   1.00
C156   C     0.46545   0.93250   0.79764   0.00000  Uiso   1.00
C157   C     0.48965   0.97043   0.70086   0.00000  Uiso   1.00
C158   C     0.48796   0.97068   0.65434   0.00000  Uiso   1.00
C159   C     0.47427   0.95199   0.63151   0.00000  Uiso   1.00
C160   C     0.46327   0.93326   0.65543   0.00000  Uiso   1.00
C161   C     0.44600   0.89348   0.79662   0.00000  Uiso   1.00
C162   C     0.43669   0.87444   0.77349   0.00000  Uiso   1.00
C163   C     0.43708   0.87446   0.72648   0.00000  Uiso   1.00
C164   C     0.44658   0.89352   0.70343   0.00000  Uiso   1.00
C165   C     0.46326   0.93331   0.84473   0.00000  Uiso   1.00
C166   C     0.47427   0.95205   0.86860   0.00000  Uiso   1.00
C167   C     0.48778   0.97076   0.84568   0.00000  Uiso   1.00
C168   C     0.48942   0.97050   0.79916   0.00000  Uiso   1.00
C169   C     0.49919   0.98966   0.86979   0.00000  Uiso   1.00
C170   C     0.49686   0.98954   0.91617   0.00000  Uiso   1.00
C171   C     0.48355   0.97133   0.93846   0.00000  Uiso   1.00
C172   C     0.47206   0.95240   0.91538   0.00000  Uiso   1.00
C173   C     0.47192   0.95236   0.58478   0.00000  Uiso   1.00
C174   C     0.48347   0.97127   0.56166   0.00000  Uiso   1.00
C175   C     0.49701   0.98943   0.58386   0.00000  Uiso   1.00
C176   C     0.49946   0.98953   0.63018   0.00000  Uiso   1.00
H61    H     0.50016   0.98531   0.71610   0.00000  Uiso   1.00
H62    H     0.45249   0.91958   0.63647   0.00000  Uiso   1.00
H63    H     0.44631   0.89242   0.83252   0.00000  Uiso   1.00
H64    H     0.44742   0.89256   0.66757   0.00000  Uiso   1.00
H65    H     0.45261   0.91966   0.86387   0.00000  Uiso   1.00
H66    H     0.49973   0.98542   0.78386   0.00000  Uiso   1.00
H67    H     0.50970   0.00426   0.85290   0.00000  Uiso   1.00
O31    O     0.50754   0.00736   0.94219   0.00000  Uiso   1.00
O32    O     0.48242   0.97296   0.98431   0.00000  Uiso   1.00
H68    H     0.46167   0.93821   0.93372   0.00000  Uiso   1.00
H69    H     0.46138   0.93820   0.56653   0.00000  Uiso   1.00
O33    O     0.48216   0.97295   0.51587   0.00000  Uiso   1.00
O34    O     0.50777   0.00723   0.55780   0.00000  Uiso   1.00
H70    H     0.51012   0.00410   0.64700   0.00000  Uiso   1.00
C177   C     0.42829   0.85533   0.70305   0.00000  Uiso   1.00
C178   C     0.41903   0.83635   0.72640   0.00000  Uiso   1.00
C179   C     0.41842   0.83632   0.77355   0.00000  Uiso   1.00
C180   C     0.42731   0.85529   0.79691   0.00000  Uiso   1.00
H71    H     0.42859   0.85510   0.66680   0.00000  Uiso   1.00
O35    O     0.41028   0.81731   0.70343   0.00000  Uiso   1.00
O36    O     0.40886   0.81725   0.79650   0.00000  Uiso   1.00
H72    H     0.42688   0.85502   0.83317   0.00000  Uiso   1.00
C181   C     0.52338   0.47534   0.27381   0.00000  Uiso   1.00
C182   C     0.53375   0.46646   0.29760   0.00000  Uiso   1.00
C183   C     0.54301   0.45645   0.27374   0.00000  Uiso   1.00
C184   C     0.54390   0.45731   0.22608   0.00000  Uiso   1.00
C185   C     0.53385   0.46653   0.20213   0.00000  Uiso   1.00
C186   C     0.52389   0.47586   0.22602   0.00000  Uiso   1.00
C187   C     0.55513   0.44901   0.20373   0.00000  Uiso   1.00
C188   C     0.56368   0.43867   0.22683   0.00000  Uiso   1.00
C189   C     0.56132   0.43637   0.27347   0.00000  Uiso   1.00
C190   C     0.55107   0.44510   0.29633   0.00000  Uiso   1.00
C191   C     0.51255   0.48331   0.29884   0.00000  Uiso   1.00
C192   C     0.51333   0.48423   0.34549   0.00000  Uiso   1.00
C193   C     0.52490   0.47690   0.36878   0.00000  Uiso   1.00
C194   C     0.53497   0.46826   0.34501   0.00000  Uiso   1.00
C195   C     0.51505   0.48592   0.20115   0.00000  Uiso   1.00
C196   C     0.51479   0.48581   0.15447   0.00000  Uiso   1.00
C197   C     0.52380   0.47582   0.13096   0.00000  Uiso   1.00
C198   C     0.53303   0.46629   0.15457   0.00000  Uiso   1.00
C199   C     0.52352   0.47564   0.08381   0.00000  Uiso   1.00
C200   C     0.51423   0.48535   0.06107   0.00000  Uiso   1.00
C201   C     0.50533   0.49498   0.08402   0.00000  Uiso   1.00
C202   C     0.50548   0.49547   0.13070   0.00000  Uiso   1.00
C203   C     0.56941   0.42548   0.29680   0.00000  Uiso   1.00
C204   C     0.57999   0.41716   0.27374   0.00000  Uiso   1.00
C205   C     0.58256   0.41965   0.22697   0.00000  Uiso   1.00
C206   C     0.57440   0.43032   0.20370   0.00000  Uiso   1.00
H73    H     0.55787   0.45055   0.16821   0.00000  Uiso   1.00
H74    H     0.54913   0.44220   0.33182   0.00000  Uiso   1.00
H75    H     0.50300   0.48869   0.28329   0.00000  Uiso   1.00
H76    H     0.54418   0.46362   0.36460   0.00000  Uiso   1.00
H77    H     0.50851   0.49442   0.21686   0.00000  Uiso   1.00
H78    H     0.53904   0.45843   0.13448   0.00000  Uiso   1.00
H79    H     0.53044   0.46813   0.06496   0.00000  Uiso   1.00
O37    O     0.51337   0.48591   0.01496   0.00000  Uiso   1.00
O38    O     0.49641   0.50394   0.05832   0.00000  Uiso   1.00
H80    H     0.49835   0.50317   0.14808   0.00000  Uiso   1.00
H81    H     0.56766   0.42355   0.33279   0.00000  Uiso   1.00
O39    O     0.58814   0.40641   0.29662   0.00000  Uiso   1.00
O40    O     0.59326   0.41138   0.20430   0.00000  Uiso   1.00
H82    H     0.57637   0.43199   0.16771   0.00000  Uiso   1.00
C207   C     0.52607   0.47820   0.41583   0.00000  Uiso   1.00
C208   C     0.51559   0.48666   0.43872   0.00000  Uiso   1.00
C209   C     0.50425   0.49375   0.41599   0.00000  Uiso   1.00
C210   C     0.50289   0.49269   0.36940   0.00000  Uiso   1.00
H83    H     0.53488   0.47265   0.43449   0.00000  Uiso   1.00
O41    O     0.51587   0.48841   0.48477   0.00000  Uiso   1.00
O42    O     0.49453   0.50186   0.44180   0.00000  Uiso   1.00
H84    H     0.49392   0.49849   0.35221   0.00000  Uiso   1.00
C211   C     0.04834   0.52209   0.72598   0.00000  Uiso   1.00
C212   C     0.06754   0.53454   0.70230   0.00000  Uiso   1.00
C213   C     0.08697   0.54446   0.72604   0.00000  Uiso   1.00
C214   C     0.08697   0.54428   0.77373   0.00000  Uiso   1.00
C215   C     0.06755   0.53441   0.79747   0.00000  Uiso   1.00
C216   C     0.04835   0.52202   0.77384   0.00000  Uiso   1.00
C217   C     0.10652   0.55333   0.79650   0.00000  Uiso   1.00
C218   C     0.12560   0.56285   0.77344   0.00000  Uiso   1.00
C219   C     0.12562   0.56328   0.72644   0.00000  Uiso   1.00
C220   C     0.10658   0.55397   0.70331   0.00000  Uiso   1.00
C221   C     0.02952   0.51064   0.70081   0.00000  Uiso   1.00
C222   C     0.02926   0.51227   0.65429   0.00000  Uiso   1.00
C223   C     0.04799   0.52572   0.63134   0.00000  Uiso   1.00
C224   C     0.06674   0.53669   0.65520   0.00000  Uiso   1.00
C225   C     0.02957   0.51044   0.79909   0.00000  Uiso   1.00
C226   C     0.02933   0.51210   0.84562   0.00000  Uiso   1.00
C227   C     0.04804   0.52569   0.86847   0.00000  Uiso   1.00
C228   C     0.06679   0.53666   0.84455   0.00000  Uiso   1.00
C229   C     0.04768   0.52800   0.91522   0.00000  Uiso   1.00
C230   C     0.02876   0.51650   0.93834   0.00000  Uiso   1.00
C231   C     0.01057   0.50306   0.91612   0.00000  Uiso   1.00
C232   C     0.01046   0.50065   0.86978   0.00000  Uiso   1.00
C233   C     0.14479   0.57268   0.70302   0.00000  Uiso   1.00
C234   C     0.16375   0.58157   0.72639   0.00000  Uiso   1.00
C235   C     0.16371   0.58093   0.77353   0.00000  Uiso   1.00
C236   C     0.14472   0.57164   0.79688   0.00000  Uiso   1.00
H85    H     0.10748   0.55247   0.83234   0.00000  Uiso   1.00
H86    H     0.10765   0.55370   0.66741   0.00000  Uiso   1.00
H87    H     0.01459   0.50036   0.71612   0.00000  Uiso   1.00
H88    H     0.08040   0.54728   0.63602   0.00000  Uiso   1.00
H89    H     0.01468   0.50000   0.78385   0.00000  Uiso   1.00
H90    H     0.08048   0.54737   0.86354   0.00000  Uiso   1.00
H91    H     0.06187   0.53847   0.93349   0.00000  Uiso   1.00
O43    O     0.02709   0.51777   0.98414   0.00000  Uiso   1.00
O44    O     0.99276   0.49234   0.94217   0.00000  Uiso   1.00
H92    H     0.99587   0.49006   0.85294   0.00000  Uiso   1.00
H93    H     0.14506   0.57314   0.66677   0.00000  Uiso   1.00
O45    O     0.18283   0.59116   0.70344   0.00000  Uiso   1.00
O46    O     0.18275   0.58968   0.79650   0.00000  Uiso   1.00
H94    H     0.14494   0.57132   0.83313   0.00000  Uiso   1.00
C237   C     0.04764   0.52789   0.58455   0.00000  Uiso   1.00
C238   C     0.02870   0.51644   0.56150   0.00000  Uiso   1.00
C239   C     0.01047   0.50319   0.58383   0.00000  Uiso   1.00
C240   C     0.01036   0.50089   0.63021   0.00000  Uiso   1.00
H95    H     0.06185   0.53823   0.56619   0.00000  Uiso   1.00
O47    O     0.02706   0.51754   0.51566   0.00000  Uiso   1.00
O48    O     0.99263   0.49255   0.55784   0.00000  Uiso   1.00
H96    H     0.99574   0.49043   0.64713   0.00000  Uiso   1.00
Cu1    Cu    0.50005   1.00006   0.00007   0.00000  Uiso   1.00
Cu2    Cu    0.50024   0.50004   0.50001   0.00000  Uiso   1.00
Cu3    Cu    0.00002   0.50000  -0.00003   0.00000  Uiso   1.00
Cu4    Cu    0.50002   0.99999   0.50003   0.00000  Uiso   1.00
Cu5    Cu    0.49987   0.49978   0.99994   0.00000  Uiso   1.00
Cu6    Cu   -0.00006   0.49997   0.49994   0.00000  Uiso   1.00
Zn1    Zn    0.59928   0.20077   0.25012   0.00000  Uiso   1.00
Zn2    Zn    0.40034   0.59997   0.74984   0.00000  Uiso   1.00
Zn3    Zn    0.79918   0.40072   0.24994   0.00000  Uiso   1.00
Zn4    Zn    0.40071   0.79933   0.74993   0.00000  Uiso   1.00
Zn5    Zn    0.59963   0.39999   0.25056   0.00000  Uiso   1.00
Zn6    Zn    0.20075   0.59929   0.75001   0.00000  Uiso   1.00
loop_
_geom_bond_atom_site_label_1
_geom_bond_atom_site_label_2
_geom_bond_distance
_geom_bond_site_symmetry_2
_ccdc_geom_bond_type
C1     C2      1.427   .     A
C1     C6      1.428   .     A
C1     C11     1.423   .     A
C2     C3      1.429   .     A
C2     C14     1.422   .     A
C3     C4      1.426   .     A
C3     C10     1.423   .     A
C4     C5      1.428   .     A
C4     C7      1.422   .     A
C5     C6      1.426   .     A
C5     C18     1.421   .     A
C6     C15     1.423   .     A
C7     C8      1.396   .     A
C7     H1      1.076   .     S
C8     C9      1.404   .     A
C8     C26     1.407   .     A
C9     C10     1.398   .     A
C9     C23     1.407   .     A
C10    H2      1.076   .     S
C11    C12     1.397   .     A
C11    H3      1.076   .     S
C12    C13     1.405   .     A
C12    C30     1.408   .     A
C13    C14     1.397   .     A
C13    C27     1.407   .     A
C14    H4      1.077   .     S
C15    C16     1.397   .     A
C15    H5      1.076   .     S
C16    C17     1.404   .     A
C16    C22     1.407   .     A
C17    C18     1.396   .     A
C17    C19     1.407   .     A
C18    H6      1.076   .     S
C19    C20     1.396   .     A
C19    H7      1.084   .     S
C20    C21     1.410   .     A
C20    O1      1.395   .     S
C21    C22     1.397   .     A
C21    O2      1.396   .     S
C22    H8      1.084   .     S
C23    C24     1.397   .     A
C23    H9      1.084   .     S
C24    C25     1.410   .     A
C24    O3      1.396   .     S
C25    C26     1.396   .     A
C25    O4      1.395   .     S
C26    H10     1.084   .     S
O1     Zn3     1.801   .     S
O2     Zn3     1.803   .     S
O3     Zn1     1.803   .     S
O4     Zn1     1.801   .     S
C27    C28     1.397   .     A
C27    H11     1.084   .     S
C28    C29     1.410   .     A
C28    O5      1.396   .     S
C29    C30     1.397   .     A
C29    O6      1.396   .     S
C30    H12     1.084   .     S
O5     Zn5     1.801   .     S
O6     Zn5     1.802   .     S
C31    C32     1.428   .     A
C31    C36     1.430   .     A
C31    C41     1.423   .     A
C32    C33     1.430   .     A
C32    C44     1.424   .     A
C33    C34     1.427   .     A
C33    C40     1.424   .     A
C34    C35     1.429   .     A
C34    C37     1.423   .     A
C35    C36     1.427   .     A
C35    C48     1.423   .     A
C36    C45     1.424   .     A
C37    C38     1.396   .     A
C37    H13     1.075   .     S
C38    C39     1.403   .     A
C38    C56     1.407   .     A
C39    C40     1.397   .     A
C39    C53     1.408   .     A
C40    H14     1.075   .     S
C41    C42     1.397   .     A
C41    H15     1.075   .     S
C42    C43     1.403   .     A
C42    C60     1.408   .     A
C43    C44     1.396   .     A
C43    C57     1.408   .     A
C44    H16     1.075   .     S
C45    C46     1.397   .     A
C45    H17     1.075   .     S
C46    C47     1.403   .     A
C46    C52     1.408   .     A
C47    C48     1.396   .     A
C47    C49     1.407   .     A
C48    H18     1.075   .     S
C49    C50     1.396   .     A
C49    H19     1.084   .     S
C50    C51     1.410   .     A
C50    O7      1.395   .     S
C51    C52     1.397   .     A
C51    O8      1.396   .     S
C52    H20     1.084   .     S
C53    C54     1.397   .     A
C53    H21     1.084   .     S
C54    C55     1.410   .     A
C54    O9      1.396   .     S
C55    C56     1.396   .     A
C55    O10     1.395   .     S
C56    H22     1.084   .     S
O7     Zn6     1.800   .     S
O8     Zn6     1.803   .     S
O9     Zn4     1.803   .     S
O10    Zn4     1.800   .     S
C57    C58     1.396   .     A
C57    H23     1.084   .     S
C58    C59     1.410   .     A
C58    O11     1.396   .     S
C59    C60     1.397   .     A
C59    O12     1.396   .     S
C60    H24     1.084   .     S
O11    Zn2     1.801   .     S
O12    Zn2     1.802   .     S
C61    C62     1.427   .     A
C61    C66     1.431   .     A
C61    C71     1.422   .     A
C62    C63     1.427   .     A
C62    C74     1.422   .     A
C63    C64     1.426   .     A
C63    C70     1.421   .     A
C64    C65     1.425   .     A
C64    C67     1.421   .     A
C65    C66     1.426   .     A
C65    C78     1.421   .     A
C66    C75     1.422   .     A
C67    C68     1.397   .     A
C67    H25     1.078   .     S
C68    C69     1.406   .     A
C68    C86     1.407   .     A
C69    C70     1.397   .     A
C69    C83     1.407   .     A
C70    H26     1.077   .     S
C71    C72     1.397   .     A
C71    H27     1.074   .     S
C72    C73     1.407   .     A
C72    C90     1.409   .     A
C73    C74     1.396   .     A
C73    C87     1.410   .     A
C74    H28     1.077   .     S
C75    C76     1.397   .     A
C75    H29     1.074   .     S
C76    C77     1.407   .     A
C76    C82     1.409   .     A
C77    C78     1.396   .     A
C77    C79     1.410   .     A
C78    H30     1.078   .     S
C79    C80     1.397   .     A
C79    H31     1.083   .     S
C80    C81     1.372   .     A
C80    O13     1.382   .     S
C81    C82     1.396   .     A
C81    O14     1.381   1_545 S
C82    H32     1.083   1_545 S
C83    C84     1.397   .     A
C83    H33     1.084   .     S
C84    C85     1.410   .     A
C84    O15     1.396   .     S
C85    C86     1.397   .     A
C85    O16     1.396   .     S
C86    H34     1.084   .     S
O13    Cu1     1.813   1_545 S
O14    C81     1.381   1_565 S
O14    Cu1     1.813   .     S
H32    C82     1.083   1_565 S
O15    Zn1     1.802   .     S
O16    Zn1     1.802   .     S
C87    C88     1.396   .     A
C87    H35     1.083   .     S
C88    C89     1.372   .     A
C88    O17     1.382   .     S
C89    C90     1.396   .     A
C89    O18     1.382   1_545 S
C90    H36     1.083   1_545 S
O17    Cu4     1.813   1_545 S
O18    C89     1.382   1_565 S
O18    Cu4     1.813   .     S
H36    C90     1.083   1_565 S
C91    C92     1.428   .     A
C91    C96     1.430   .     A
C91    C101    1.424   .     A
C92    C93     1.430   .     A
C92    C104    1.424   .     A
C93    C94     1.428   .     A
C93    C100    1.424   .     A
C94    C95     1.429   .     A
C94    C97     1.424   .     A
C95    C96     1.428   .     A
C95    C108    1.423   .     A
C96    C105    1.423   .     A
C97    C98     1.395   .     A
C97    H37     1.075   .     S
C98    C99     1.406   .     A
C98    C116    1.409   .     A
C99    C100    1.395   .     A
C99    C113    1.409   .     A
C100   H38     1.074   .     S
C101   C102    1.396   .     A
C101   H39     1.074   .     S
C102   C103    1.403   .     A
C102   C120    1.408   .     A
C103   C104    1.395   .     A
C103   C117    1.407   .     A
C104   H40     1.074   .     S
C105   C106    1.395   .     A
C105   H41     1.074   .     S
C106   C107    1.406   .     A
C106   C112    1.409   .     A
C107   C108    1.395   .     A
C107   C109    1.410   .     A
C108   H42     1.075   .     S
C109   C110    1.396   .     A
C109   H43     1.084   .     S
C110   C111    1.372   .     A
C110   O19     1.381   .     S
C111   C112    1.395   .     A
C111   O20     1.381   .     S
C112   H44     1.084   .     S
C113   C114    1.395   .     A
C113   H45     1.084   .     S
C114   C115    1.372   .     A
C114   O21     1.381   .     S
C115   C116    1.396   .     A
C115   O22     1.381   .     S
C116   H46     1.084   .     S
O19    Cu2     1.812   .     S
O20    Cu2     1.812   .     S
O21    Cu5     1.812   .     S
O22    Cu5     1.812   .     S
C117   C118    1.396   .     A
C117   H47     1.084   .     S
C118   C119    1.410   .     A
C118   O23     1.395   .     S
C119   C120    1.397   .     A
C119   O24     1.396   .     S
C120   H48     1.084   .     S
O23    Zn2     1.801   .     S
O24    Zn2     1.802   .     S
C121   C122    1.426   .     A
C121   C126    1.427   .     A
C121   C131    1.422   .     A
C122   C123    1.426   .     A
C122   C134    1.421   .     A
C123   C124    1.427   .     A
C123   C130    1.421   .     A
C124   C125    1.430   .     A
C124   C127    1.422   .     A
C125   C126    1.427   .     A
C125   C138    1.422   .     A
C126   C135    1.422   .     A
C127   C128    1.397   .     A
C127   H49     1.074   .     S
C128   C129    1.407   .     A
C128   C146    1.409   .     A
C129   C130    1.396   .     A
C129   C143    1.410   .     A
C130   H50     1.078   .     S
C131   C132    1.397   .     A
C131   H51     1.077   .     S
C132   C133    1.405   .     A
C132   C150    1.407   .     A
C133   C134    1.397   .     A
C133   C147    1.407   .     A
C134   H52     1.078   .     S
C135   C136    1.396   .     A
C135   H53     1.077   .     S
C136   C137    1.407   .     A
C136   C142    1.409   .     A
C137   C138    1.397   .     A
C137   C139    1.409   .     A
C138   H54     1.074   .     S
C139   C140    1.396   .     A
C139   H55     1.083   1_655 S
C140   C141    1.372   .     A
C140   O25     1.382   1_655 S
C141   C142    1.396   .     A
C141   O26     1.382   .     S
C142   H56     1.084   .     S
C143   C144    1.397   .     A
C143   H57     1.083   .     S
C144   C145    1.372   .     A
C144   O27     1.382   .     S
C145   C146    1.396   .     A
C145   O28     1.382   1_655 S
C146   H58     1.083   1_655 S
H55    C139    1.083   1_455 S
O25    C140    1.382   1_455 S
O25    Cu3     1.813   .     S
O26    Cu3     1.813   1_655 S
O27    Cu6     1.813   1_655 S
O28    C145    1.382   1_455 S
O28    Cu6     1.813   .     S
H58    C146    1.083   1_455 S
C147   C148    1.397   .     A
C147   H59     1.084   .     S
C148   C149    1.410   .     A
C148   O29     1.396   .     S
C149   C150    1.397   .     A
C149   O30     1.396   .     S
C150   H60     1.084   .     S
O29    Zn3     1.802   .     S
O30    Zn3     1.802   .     S
C151   C152    1.425   .     A
C151   C156    1.427   .     A
C151   C161    1.422   .     A
C152   C153    1.426   .     A
C152   C164    1.421   .     A
C153   C154    1.427   .     A
C153   C160    1.421   .     A
C154   C155    1.430   .     A
C154   C157    1.422   .     A
C155   C156    1.427   .     A
C155   C168    1.423   .     A
C156   C165    1.421   .     A
C157   C158    1.397   .     A
C157   H61     1.075   .     S
C158   C159    1.408   .     A
C158   C176    1.409   .     A
C159   C160    1.396   .     A
C159   C173    1.409   .     A
C160   H62     1.078   .     S
C161   C162    1.397   .     A
C161   H63     1.077   .     S
C162   C163    1.405   .     A
C162   C180    1.407   .     A
C163   C164    1.397   .     A
C163   C177    1.407   .     A
C164   H64     1.078   .     S
C165   C166    1.396   .     A
C165   H65     1.077   .     S
C166   C167    1.407   .     A
C166   C172    1.409   .     A
C167   C168    1.397   .     A
C167   C169    1.410   .     A
C168   H66     1.074   .     S
C169   C170    1.396   .     A
C169   H67     1.083   1_565 S
C170   C171    1.372   .     A
C170   O31     1.382   1_565 S
C171   C172    1.396   .     A
C171   O32     1.382   .     S
C172   H68     1.084   .     S
C173   C174    1.397   .     A
C173   H69     1.084   .     S
C174   C175    1.372   .     A
C174   O33     1.382   .     S
C175   C176    1.396   .     A
C175   O34     1.382   1_565 S
C176   H70     1.084   1_565 S
H67    C169    1.083   1_545 S
O31    C170    1.382   1_545 S
O31    Cu1     1.813   1_546 S
O32    Cu1     1.813   1_556 S
O33    Cu4     1.813   .     S
O34    C175    1.382   1_545 S
O34    Cu4     1.813   1_545 S
H70    C176    1.084   1_545 S
C177   C178    1.397   .     A
C177   H71     1.084   .     S
C178   C179    1.410   .     A
C178   O35     1.396   .     S
C179   C180    1.397   .     A
C179   O36     1.396   .     S
C180   H72     1.084   .     S
O35    Zn4     1.802   .     S
O36    Zn4     1.802   .     S
C181   C182    1.426   .     A
C181   C186    1.429   .     A
C181   C191    1.423   .     A
C182   C183    1.427   .     A
C182   C194    1.422   .     A
C183   C184    1.426   .     A
C183   C190    1.422   .     A
C184   C185    1.429   .     A
C184   C187    1.423   .     A
C185   C186    1.428   .     A
C185   C198    1.423   .     A
C186   C195    1.423   .     A
C187   C188    1.397   .     A
C187   H73     1.076   .     S
C188   C189    1.404   .     A
C188   C206    1.407   .     A
C189   C190    1.396   .     A
C189   C203    1.407   .     A
C190   H74     1.077   .     S
C191   C192    1.396   .     A
C191   H75     1.075   .     S
C192   C193    1.407   .     A
C192   C210    1.409   .     A
C193   C194    1.395   .     A
C193   C207    1.409   .     A
C194   H76     1.077   .     S
C195   C196    1.395   .     A
C195   H77     1.075   .     S
C196   C197    1.406   .     A
C196   C202    1.409   .     A
C197   C198    1.395   .     A
C197   C199    1.409   .     A
C198   H78     1.075   .     S
C199   C200    1.395   .     A
C199   H79     1.084   .     S
C200   C201    1.372   .     A
C200   O37     1.381   .     S
C201   C202    1.396   .     A
C201   O38     1.381   .     S
C202   H80     1.084   .     S
C203   C204    1.397   .     A
C203   H81     1.084   .     S
C204   C205    1.410   .     A
C204   O39     1.396   .     S
C205   C206    1.396   .     A
C205   O40     1.396   .     S
C206   H82     1.084   .     S
O37    Cu5     1.812   1_554 S
O38    Cu5     1.812   1_554 S
O39    Zn5     1.802   .     S
O40    Zn5     1.801   .     S
C207   C208    1.396   .     A
C207   H83     1.083   .     S
C208   C209    1.372   .     A
C208   O41     1.381   .     S
C209   C210    1.395   .     A
C209   O42     1.381   .     S
C210   H84     1.084   .     S
O41    Cu2     1.813   .     S
O42    Cu2     1.811   .     S
C211   C212    1.428   .     A
C211   C216    1.430   .     A
C211   C221    1.423   .     A
C212   C213    1.427   .     A
C212   C224    1.421   .     A
C213   C214    1.425   .     A
C213   C220    1.422   .     A
C214   C215    1.426   .     A
C214   C217    1.421   .     A
C215   C216    1.427   .     A
C215   C228    1.421   .     A
C216   C225    1.423   .     A
C217   C218    1.397   .     A
C217   H85     1.078   .     S
C218   C219    1.405   .     A
C218   C236    1.407   .     A
C219   C220    1.397   .     A
C219   C233    1.407   .     A
C220   H86     1.077   .     S
C221   C222    1.397   .     A
C221   H87     1.074   .     S
C222   C223    1.407   .     A
C222   C240    1.409   .     A
C223   C224    1.396   .     A
C223   C237    1.409   .     A
C224   H88     1.077   .     S
C225   C226    1.397   .     A
C225   H89     1.074   .     S
C226   C227    1.407   .     A
C226   C232    1.409   .     A
C227   C228    1.396   .     A
C227   C229    1.409   .     A
C228   H90     1.078   .     S
C229   C230    1.397   .     A
C229   H91     1.083   .     S
C230   C231    1.372   .     A
C230   O43     1.382   .     S
C231   C232    1.396   .     A
C231   O44     1.382   1_455 S
C232   H92     1.083   1_455 S
C233   C234    1.397   .     A
C233   H93     1.084   .     S
C234   C235    1.410   .     A
C234   O45     1.396   .     S
C235   C236    1.397   .     A
C235   O46     1.396   .     S
C236   H94     1.084   .     S
O43    Cu3     1.813   1_556 S
O44    C231    1.382   1_655 S
O44    Cu3     1.813   1_656 S
H92    C232    1.083   1_655 S
O45    Zn6     1.802   .     S
O46    Zn6     1.802   .     S
C237   C238    1.397   .     A
C237   H95     1.084   .     S
C238   C239    1.372   .     A
C238   O47     1.382   .     S
C239   C240    1.396   .     A
C239   O48     1.382   1_455 S
C240   H96     1.083   1_455 S
O47    Cu6     1.813   .     S
O48    C239    1.382   1_655 S
O48    Cu6     1.813   1_655 S
H96    C240    1.083   1_655 S
Cu1    O13     1.813   1_565 S
Cu1    O31     1.813   1_564 S
Cu1    O32     1.813   1_554 S
Cu3    O26     1.813   1_455 S
Cu3    O43     1.813   1_554 S
Cu3    O44     1.813   1_454 S
Cu4    O17     1.813   1_565 S
Cu4    O34     1.813   1_565 S
Cu5    O37     1.812   1_556 S
Cu5    O38     1.812   1_556 S
Cu6    O27     1.813   1_455 S
Cu6    O48     1.813   1_455 S
