data_etj-spacer-B_O-Feoct
_audit_creation_date              2021-11-06
_audit_creation_method            'Materials Studio'
_symmetry_space_group_name_H-M    'P1'
_symmetry_Int_Tables_number       1
_symmetry_cell_setting            triclinic
loop_
_symmetry_equiv_pos_as_xyz
  x,y,z
_cell_length_a                    34.4068
_cell_length_b                    34.4072
_cell_length_c                    37.3635
_cell_angle_alpha                 90.0007
_cell_angle_beta                  89.9991
_cell_angle_gamma                 89.9965
loop_
_atom_site_label
_atom_site_type_symbol
_atom_site_fract_x
_atom_site_fract_y
_atom_site_fract_z
_atom_site_U_iso_or_equiv
_atom_site_adp_type
_atom_site_occupancy
Fe1    Fe    0.13966   0.24997   0.24999   0.00000  Uiso   1.00
Fe2    Fe    0.24997   0.13966   0.75001   0.00000  Uiso   1.00
Fe3    Fe    0.36037   0.25000   0.25001   0.00000  Uiso   1.00
Fe4    Fe    0.25000   0.36036   0.74999   0.00000  Uiso   1.00
Fe5    Fe    0.86035   0.75003   0.75002   0.00000  Uiso   1.00
Fe6    Fe    0.75004   0.86035   0.24998   0.00000  Uiso   1.00
Fe7    Fe    0.63965   0.75001   0.74998   0.00000  Uiso   1.00
Fe8    Fe    0.75001   0.63965   0.25002   0.00000  Uiso   1.00
C1     C     0.51190   0.04055   0.12676   0.00000  Uiso   1.00
C2     C     0.54058   0.01189   0.12675   0.00000  Uiso   1.00
C3     C     0.54931   0.99192   0.09588   0.00000  Uiso   1.00
C4     C     0.52849   1.00002   0.06442   0.00000  Uiso   1.00
C5     C     0.50003   0.02847   0.06442   0.00000  Uiso   1.00
C6     C     0.49192   0.04927   0.09590   0.00000  Uiso   1.00
O1     O     0.50221   0.06155   0.15677   0.00000  Uiso   1.00
O2     O     0.56160   1.00220   0.15675   0.00000  Uiso   1.00
O3     O     0.57884   0.96467   0.09855   0.00000  Uiso   1.00
O4     O     0.53438   0.98091   0.03240   0.00000  Uiso   1.00
O5     O     0.48090   0.03436   0.03241   0.00000  Uiso   1.00
O6     O     0.46465   0.07879   0.09858   0.00000  Uiso   1.00
C7     C     0.45948   0.51187   0.62678   0.00000  Uiso   1.00
C8     C     0.48814   0.54053   0.62678   0.00000  Uiso   1.00
C9     C     0.50811   0.54926   0.59590   0.00000  Uiso   1.00
C10    C     0.50000   0.52846   0.56443   0.00000  Uiso   1.00
C11    C     0.47155   0.50001   0.56443   0.00000  Uiso   1.00
C12    C     0.45074   0.49190   0.59590   0.00000  Uiso   1.00
O7     O     0.43847   0.50217   0.65678   0.00000  Uiso   1.00
O8     O     0.49784   0.56153   0.65678   0.00000  Uiso   1.00
O9     O     0.53538   0.57878   0.59858   0.00000  Uiso   1.00
O10    O     0.51912   0.53435   0.53241   0.00000  Uiso   1.00
O11    O     0.46565   0.48090   0.53241   0.00000  Uiso   1.00
O12    O     0.42122   0.46465   0.59858   0.00000  Uiso   1.00
C13    C     0.95948   0.48812   0.12678   0.00000  Uiso   1.00
C14    C     0.98814   0.45945   0.12677   0.00000  Uiso   1.00
C15    C     0.00810   0.45071   0.09589   0.00000  Uiso   1.00
C16    C    -0.00000   0.47153   0.06443   0.00000  Uiso   1.00
C17    C     0.97155   0.49999   0.06444   0.00000  Uiso   1.00
C18    C     0.95075   0.50810   0.09591   0.00000  Uiso   1.00
O13    O     0.93848   0.49782   0.15678   0.00000  Uiso   1.00
O14    O    -0.00218   0.43842   0.15676   0.00000  Uiso   1.00
O15    O     0.03535   0.42118   0.09857   0.00000  Uiso   1.00
O16    O     0.01910   0.46563   0.03241   0.00000  Uiso   1.00
O17    O     0.96566   0.51911   0.03242   0.00000  Uiso   1.00
O18    O     0.92124   0.53537   0.09860   0.00000  Uiso   1.00
C19    C     0.01187   0.95948   0.62678   0.00000  Uiso   1.00
C20    C     0.04052   0.98815   0.62678   0.00000  Uiso   1.00
C21    C     0.04926   0.00811   0.59590   0.00000  Uiso   1.00
C22    C     0.02846  -0.00000   0.56443   0.00000  Uiso   1.00
C23    C     1.00001   0.97154   0.56443   0.00000  Uiso   1.00
C24    C     0.99190   0.95074   0.59590   0.00000  Uiso   1.00
O19    O     1.00217   0.93848   0.65678   0.00000  Uiso   1.00
O20    O     0.06153  -0.00215   0.65678   0.00000  Uiso   1.00
O21    O     0.07878   0.03538   0.59858   0.00000  Uiso   1.00
O22    O     0.03435   0.01911   0.53241   0.00000  Uiso   1.00
O23    O     0.98090   0.96564   0.53241   0.00000  Uiso   1.00
O24    O     0.96465   0.92121   0.59858   0.00000  Uiso   1.00
C25    C     0.51187   0.45948   0.37322   0.00000  Uiso   1.00
C26    C     0.54053   0.48815   0.37322   0.00000  Uiso   1.00
C27    C     0.54926   0.50812   0.40410   0.00000  Uiso   1.00
C28    C     0.52846   0.50000   0.43557   0.00000  Uiso   1.00
C29    C     0.50001   0.47155   0.43557   0.00000  Uiso   1.00
C30    C     0.49190   0.45074   0.40410   0.00000  Uiso   1.00
O25    O     0.50217   0.43847   0.34322   0.00000  Uiso   1.00
O26    O     0.56153   0.49785   0.34322   0.00000  Uiso   1.00
O27    O     0.57878   0.53538   0.40141   0.00000  Uiso   1.00
O28    O     0.53435   0.51912   0.46758   0.00000  Uiso   1.00
O29    O     0.48090   0.46565   0.46759   0.00000  Uiso   1.00
O30    O     0.46465   0.42121   0.40142   0.00000  Uiso   1.00
C31    C     0.01189   0.54058   0.87324   0.00000  Uiso   1.00
C32    C     0.04055   0.51190   0.87324   0.00000  Uiso   1.00
C33    C     0.04927   0.49192   0.90410   0.00000  Uiso   1.00
C34    C     0.02847   0.50003   0.93558   0.00000  Uiso   1.00
C35    C     1.00002   0.52849   0.93558   0.00000  Uiso   1.00
C36    C     0.99192   0.54931   0.90412   0.00000  Uiso   1.00
O31    O     1.00220   0.56160   0.84325   0.00000  Uiso   1.00
O32    O     0.06155   0.50220   0.84323   0.00000  Uiso   1.00
O33    O     0.07879   0.46465   0.90142   0.00000  Uiso   1.00
O34    O     0.03435   0.48090   0.96759   0.00000  Uiso   1.00
O35    O     0.98091   0.53438   0.96760   0.00000  Uiso   1.00
O36    O     0.96467   0.57884   0.90144   0.00000  Uiso   1.00
C37    C     0.95948   0.01187   0.37323   0.00000  Uiso   1.00
C38    C     0.98815   0.04053   0.37323   0.00000  Uiso   1.00
C39    C     0.00812   0.04926   0.40410   0.00000  Uiso   1.00
C40    C     0.00000   0.02846   0.43557   0.00000  Uiso   1.00
C41    C     0.97154   1.00001   0.43557   0.00000  Uiso   1.00
C42    C     0.95074   0.99190   0.40410   0.00000  Uiso   1.00
O37    O     0.93848   1.00217   0.34322   0.00000  Uiso   1.00
O38    O    -0.00215   0.06153   0.34322   0.00000  Uiso   1.00
O39    O     0.03538   0.07878   0.40142   0.00000  Uiso   1.00
O40    O     0.01911   0.03435   0.46759   0.00000  Uiso   1.00
O41    O     0.96564   0.98090   0.46759   0.00000  Uiso   1.00
O42    O     0.92121   0.96465   0.40142   0.00000  Uiso   1.00
C43    C     0.45944   0.98813   0.87323   0.00000  Uiso   1.00
C44    C     0.48812   0.95948   0.87322   0.00000  Uiso   1.00
C45    C     0.50810   0.95075   0.90409   0.00000  Uiso   1.00
C46    C     0.49999   0.97155   0.93556   0.00000  Uiso   1.00
C47    C     0.47153  -0.00001   0.93557   0.00000  Uiso   1.00
C48    C     0.45071   0.00810   0.90411   0.00000  Uiso   1.00
O43    O     0.43843  -0.00218   0.84324   0.00000  Uiso   1.00
O44    O     0.49782   0.93847   0.84322   0.00000  Uiso   1.00
O45    O     0.53537   0.92123   0.90140   0.00000  Uiso   1.00
O46    O     0.51911   0.96566   0.96758   0.00000  Uiso   1.00
O47    O     0.46563   0.01910   0.96759   0.00000  Uiso   1.00
O48    O     0.42118   0.03535   0.90143   0.00000  Uiso   1.00
C49    C     0.09257   0.19277   0.27250   0.00000  Uiso   1.00
C50    C     0.11277   0.20423   0.30319   0.00000  Uiso   1.00
C51    C     0.10640   0.18479   0.33581   0.00000  Uiso   1.00
C52    C     0.07944   0.15413   0.33675   0.00000  Uiso   1.00
C53    C     0.05935   0.14370   0.30636   0.00000  Uiso   1.00
C54    C     0.06553   0.16260   0.27390   0.00000  Uiso   1.00
O49    O     0.10013   0.21177   0.24066   0.00000  Uiso   1.00
O50    O     0.13907   0.23482   0.30006   0.00000  Uiso   1.00
H1     H     0.12210   0.19317   0.35970   0.00000  Uiso   1.00
O51    O     0.07124   0.13258   0.36719   0.00000  Uiso   1.00
O52    O     0.03326   0.11366   0.30982   0.00000  Uiso   1.00
H2     H     0.04978   0.15388   0.25014   0.00000  Uiso   1.00
Fe9    Cu    0.03452   0.09665   0.35551   0.00000  Uiso   1.00
C55    C     0.29571   0.11276   0.80322   0.00000  Uiso   1.00
C56    C     0.30717   0.09255   0.77252   0.00000  Uiso   1.00
C57    C     0.33733   0.06551   0.77393   0.00000  Uiso   1.00
C58    C     0.35624   0.05932   0.80639   0.00000  Uiso   1.00
C59    C     0.34581   0.07941   0.83677   0.00000  Uiso   1.00
C60    C     0.31516   0.10639   0.83584   0.00000  Uiso   1.00
O53    O     0.26513   0.13907   0.80009   0.00000  Uiso   1.00
O54    O     0.28817   0.10011   0.74068   0.00000  Uiso   1.00
H3     H     0.34605   0.04975   0.75017   0.00000  Uiso   1.00
O55    O     0.38628   0.03323   0.80985   0.00000  Uiso   1.00
O56    O     0.36736   0.07121   0.86721   0.00000  Uiso   1.00
H4     H     0.30678   0.12209   0.85972   0.00000  Uiso   1.00
Fe10   Cu    0.40330   0.03449   0.85553   0.00000  Uiso   1.00
C61    C     0.38726   0.29575   0.30321   0.00000  Uiso   1.00
C62    C     0.40746   0.30721   0.27251   0.00000  Uiso   1.00
C63    C     0.43449   0.33738   0.27391   0.00000  Uiso   1.00
C64    C     0.44067   0.35629   0.30637   0.00000  Uiso   1.00
C65    C     0.42059   0.34586   0.33675   0.00000  Uiso   1.00
C66    C     0.39362   0.31520   0.33582   0.00000  Uiso   1.00
O57    O     0.36096   0.26516   0.30008   0.00000  Uiso   1.00
O58    O     0.39990   0.28820   0.24067   0.00000  Uiso   1.00
H5     H     0.45025   0.34610   0.25015   0.00000  Uiso   1.00
O59    O     0.46676   0.38634   0.30982   0.00000  Uiso   1.00
O60    O     0.42879   0.36741   0.36719   0.00000  Uiso   1.00
H6     H     0.37793   0.30683   0.35971   0.00000  Uiso   1.00
Fe11   Cu    0.46550   0.40334   0.35551   0.00000  Uiso   1.00
C67    C     0.19279   0.40747   0.77250   0.00000  Uiso   1.00
C68    C     0.20424   0.38725   0.80319   0.00000  Uiso   1.00
C69    C     0.18479   0.39361   0.83581   0.00000  Uiso   1.00
C70    C     0.15414   0.42058   0.83674   0.00000  Uiso   1.00
C71    C     0.14371   0.44068   0.80636   0.00000  Uiso   1.00
C72    C     0.16262   0.43450   0.77391   0.00000  Uiso   1.00
O61    O     0.21180   0.39991   0.74066   0.00000  Uiso   1.00
O62    O     0.23484   0.36095   0.80006   0.00000  Uiso   1.00
H7     H     0.19316   0.37791   0.85969   0.00000  Uiso   1.00
O63    O     0.13258   0.42878   0.86718   0.00000  Uiso   1.00
O64    O     0.11367   0.46678   0.80982   0.00000  Uiso   1.00
H8     H     0.15391   0.45026   0.75014   0.00000  Uiso   1.00
Fe12   Cu    0.09666   0.46551   0.85551   0.00000  Uiso   1.00
C73    C     0.11276   0.29571   0.19678   0.00000  Uiso   1.00
C74    C     0.09255   0.30717   0.22748   0.00000  Uiso   1.00
C75    C     0.06551   0.33733   0.22607   0.00000  Uiso   1.00
C76    C     0.05932   0.35624   0.19361   0.00000  Uiso   1.00
C77    C     0.07941   0.34581   0.16323   0.00000  Uiso   1.00
C78    C     0.10639   0.31516   0.16416   0.00000  Uiso   1.00
O65    O     0.13907   0.26513   0.19991   0.00000  Uiso   1.00
O66    O     0.10011   0.28817   0.25932   0.00000  Uiso   1.00
H9     H     0.04975   0.34605   0.24983   0.00000  Uiso   1.00
O67    O     0.03323   0.38628   0.19015   0.00000  Uiso   1.00
O68    O     0.07121   0.36736   0.13279   0.00000  Uiso   1.00
H10    H     0.12209   0.30678   0.14027   0.00000  Uiso   1.00
Fe13   Cu    0.03449   0.40330   0.14447   0.00000  Uiso   1.00
C79    C     0.19277   0.09257   0.72750   0.00000  Uiso   1.00
C80    C     0.20423   0.11277   0.69681   0.00000  Uiso   1.00
C81    C     0.18479   0.10640   0.66419   0.00000  Uiso   1.00
C82    C     0.15413   0.07944   0.66326   0.00000  Uiso   1.00
C83    C     0.14370   0.05935   0.69364   0.00000  Uiso   1.00
C84    C     0.16260   0.06553   0.72610   0.00000  Uiso   1.00
O69    O     0.21177   0.10013   0.75934   0.00000  Uiso   1.00
O70    O     0.23482   0.13907   0.69994   0.00000  Uiso   1.00
H11    H     0.19317   0.12210   0.64030   0.00000  Uiso   1.00
O71    O     0.13258   0.07124   0.63281   0.00000  Uiso   1.00
O72    O     0.11366   0.03326   0.69018   0.00000  Uiso   1.00
H12    H     0.15388   0.04978   0.74986   0.00000  Uiso   1.00
Fe14   Cu    0.09665   0.03452   0.64449   0.00000  Uiso   1.00
C85    C     0.40747   0.19279   0.22750   0.00000  Uiso   1.00
C86    C     0.38725   0.20424   0.19681   0.00000  Uiso   1.00
C87    C     0.39362   0.18479   0.16419   0.00000  Uiso   1.00
C88    C     0.42059   0.15414   0.16326   0.00000  Uiso   1.00
C89    C     0.44068   0.14371   0.19364   0.00000  Uiso   1.00
C90    C     0.43451   0.16262   0.22609   0.00000  Uiso   1.00
O73    O     0.39991   0.21180   0.25934   0.00000  Uiso   1.00
O74    O     0.36096   0.23483   0.19994   0.00000  Uiso   1.00
H13    H     0.37791   0.19316   0.14031   0.00000  Uiso   1.00
O75    O     0.42878   0.13258   0.13282   0.00000  Uiso   1.00
O76    O     0.46678   0.11367   0.19018   0.00000  Uiso   1.00
H14    H     0.45027   0.15391   0.24985   0.00000  Uiso   1.00
Fe15   Cu    0.46552   0.09666   0.14449   0.00000  Uiso   1.00
C91    C     0.29576   0.38725   0.69679   0.00000  Uiso   1.00
C92    C     0.30721   0.40746   0.72749   0.00000  Uiso   1.00
C93    C     0.33738   0.43449   0.72609   0.00000  Uiso   1.00
C94    C     0.35630   0.44067   0.69363   0.00000  Uiso   1.00
C95    C     0.34586   0.42058   0.66325   0.00000  Uiso   1.00
C96    C     0.31520   0.39362   0.66418   0.00000  Uiso   1.00
O77    O     0.26516   0.36096   0.69992   0.00000  Uiso   1.00
O78    O     0.28820   0.39990   0.75933   0.00000  Uiso   1.00
H15    H     0.34610   0.45024   0.74985   0.00000  Uiso   1.00
O79    O     0.38634   0.46676   0.69018   0.00000  Uiso   1.00
O80    O     0.36742   0.42878   0.63281   0.00000  Uiso   1.00
H16    H     0.30683   0.37792   0.64029   0.00000  Uiso   1.00
Fe16   Cu    0.40335   0.46550   0.64449   0.00000  Uiso   1.00
C97    C     0.88724   0.79578   0.69681   0.00000  Uiso   1.00
C98    C     0.90745   0.80724   0.72751   0.00000  Uiso   1.00
C99    C     0.93448   0.83741   0.72610   0.00000  Uiso   1.00
C100   C     0.94067   0.85631   0.69364   0.00000  Uiso   1.00
C101   C     0.92058   0.84587   0.66326   0.00000  Uiso   1.00
C102   C     0.89361   0.81521   0.66419   0.00000  Uiso   1.00
O81    O     0.86094   0.76519   0.69995   0.00000  Uiso   1.00
O82    O     0.89988   0.78824   0.75935   0.00000  Uiso   1.00
H17    H     0.95023   0.84613   0.74986   0.00000  Uiso   1.00
O83    O     0.96676   0.88635   0.69018   0.00000  Uiso   1.00
O84    O     0.92879   0.86741   0.63282   0.00000  Uiso   1.00
H18    H     0.87792   0.80683   0.64031   0.00000  Uiso   1.00
Fe17   Cu    0.96550   0.90335   0.64449   0.00000  Uiso   1.00
C103   C     0.69284   0.90747   0.22747   0.00000  Uiso   1.00
C104   C     0.70430   0.88725   0.19677   0.00000  Uiso   1.00
C105   C     0.68486   0.89363   0.16415   0.00000  Uiso   1.00
C106   C     0.65421   0.92060   0.16322   0.00000  Uiso   1.00
C107   C     0.64378   0.94070   0.19360   0.00000  Uiso   1.00
C108   C     0.66268   0.93451   0.22606   0.00000  Uiso   1.00
O85    O     0.71185   0.89990   0.25931   0.00000  Uiso   1.00
O86    O     0.73488   0.86095   0.19991   0.00000  Uiso   1.00
H19    H     0.69323   0.87793   0.14027   0.00000  Uiso   1.00
O87    O     0.63266   0.92881   0.13278   0.00000  Uiso   1.00
O88    O     0.61374   0.96679   0.19014   0.00000  Uiso   1.00
H20    H     0.65397   0.95027   0.24982   0.00000  Uiso   1.00
Fe18   Cu    0.59672   0.96553   0.14446   0.00000  Uiso   1.00
C109   C     0.59255   0.69280   0.72749   0.00000  Uiso   1.00
C110   C     0.61276   0.70425   0.69679   0.00000  Uiso   1.00
C111   C     0.60640   0.68480   0.66417   0.00000  Uiso   1.00
C112   C     0.57943   0.65414   0.66325   0.00000  Uiso   1.00
C113   C     0.55934   0.64371   0.69363   0.00000  Uiso   1.00
C114   C     0.56552   0.66263   0.72608   0.00000  Uiso   1.00
O89    O     0.60011   0.71181   0.75932   0.00000  Uiso   1.00
O90    O     0.63905   0.73485   0.69991   0.00000  Uiso   1.00
H21    H     0.62209   0.69318   0.64028   0.00000  Uiso   1.00
O91    O     0.57124   0.63258   0.63281   0.00000  Uiso   1.00
O92    O     0.53325   0.61367   0.69017   0.00000  Uiso   1.00
H22    H     0.54977   0.65391   0.74985   0.00000  Uiso   1.00
Fe19   Cu    0.53452   0.59666   0.64449   0.00000  Uiso   1.00
C115   C     0.79577   0.61276   0.19681   0.00000  Uiso   1.00
C116   C     0.80723   0.59255   0.22751   0.00000  Uiso   1.00
C117   C     0.83740   0.56551   0.22611   0.00000  Uiso   1.00
C118   C     0.85631   0.55934   0.19365   0.00000  Uiso   1.00
C119   C     0.84588   0.57943   0.16327   0.00000  Uiso   1.00
C120   C     0.81523   0.60640   0.16420   0.00000  Uiso   1.00
O93    O     0.76518   0.63906   0.19995   0.00000  Uiso   1.00
O94    O     0.78821   0.60010   0.25935   0.00000  Uiso   1.00
H23    H     0.84611   0.54976   0.24987   0.00000  Uiso   1.00
O95    O     0.88635   0.53324   0.19019   0.00000  Uiso   1.00
O96    O     0.86744   0.57124   0.13283   0.00000  Uiso   1.00
H24    H     0.80685   0.62210   0.14032   0.00000  Uiso   1.00
Fe20   Cu    0.90336   0.53451   0.14450   0.00000  Uiso   1.00
C121   C     0.90747   0.69284   0.77253   0.00000  Uiso   1.00
C122   C     0.88725   0.70430   0.80323   0.00000  Uiso   1.00
C123   C     0.89363   0.68486   0.83585   0.00000  Uiso   1.00
C124   C     0.92061   0.65421   0.83678   0.00000  Uiso   1.00
C125   C     0.94070   0.64378   0.80640   0.00000  Uiso   1.00
C126   C     0.93451   0.66268   0.77394   0.00000  Uiso   1.00
O97    O     0.89990   0.71184   0.74069   0.00000  Uiso   1.00
O98    O     0.86094   0.73488   0.80009   0.00000  Uiso   1.00
H25    H     0.87793   0.69323   0.85973   0.00000  Uiso   1.00
O99    O     0.92881   0.63266   0.86722   0.00000  Uiso   1.00
O100   O     0.96680   0.61374   0.80986   0.00000  Uiso   1.00
H26    H     0.95027   0.65396   0.75018   0.00000  Uiso   1.00
Fe21   Cu    0.96553   0.59672   0.85554   0.00000  Uiso   1.00
C127   C     0.79578   0.88724   0.30319   0.00000  Uiso   1.00
C128   C     0.80724   0.90745   0.27249   0.00000  Uiso   1.00
C129   C     0.83741   0.93448   0.27390   0.00000  Uiso   1.00
C130   C     0.85631   0.94067   0.30636   0.00000  Uiso   1.00
C131   C     0.84587   0.92058   0.33674   0.00000  Uiso   1.00
C132   C     0.81522   0.89361   0.33581   0.00000  Uiso   1.00
O101   O     0.76519   0.86094   0.30005   0.00000  Uiso   1.00
O102   O     0.78824   0.89988   0.24065   0.00000  Uiso   1.00
H27    H     0.84613   0.95023   0.25014   0.00000  Uiso   1.00
O103   O     0.88635   0.96676   0.30982   0.00000  Uiso   1.00
O104   O     0.86742   0.92879   0.36718   0.00000  Uiso   1.00
H28    H     0.80683   0.87792   0.35969   0.00000  Uiso   1.00
Fe22   Cu    0.90335   0.96550   0.35551   0.00000  Uiso   1.00
C133   C     0.61276   0.79577   0.80319   0.00000  Uiso   1.00
C134   C     0.59254   0.80722   0.77249   0.00000  Uiso   1.00
C135   C     0.56551   0.83739   0.77390   0.00000  Uiso   1.00
C136   C     0.55933   0.85631   0.80635   0.00000  Uiso   1.00
C137   C     0.57943   0.84588   0.83673   0.00000  Uiso   1.00
C138   C     0.60640   0.81522   0.83580   0.00000  Uiso   1.00
O105   O     0.63906   0.76518   0.80005   0.00000  Uiso   1.00
O106   O     0.60010   0.78821   0.74065   0.00000  Uiso   1.00
H29    H     0.54975   0.84611   0.75013   0.00000  Uiso   1.00
O107   O     0.53324   0.88635   0.80981   0.00000  Uiso   1.00
O108   O     0.57123   0.86744   0.86717   0.00000  Uiso   1.00
H30    H     0.62210   0.80685   0.85969   0.00000  Uiso   1.00
Fe23   Cu    0.53450   0.90336   0.85550   0.00000  Uiso   1.00
C139   C     0.69280   0.59256   0.27251   0.00000  Uiso   1.00
C140   C     0.70425   0.61277   0.30321   0.00000  Uiso   1.00
C141   C     0.68480   0.60640   0.33583   0.00000  Uiso   1.00
C142   C     0.65414   0.57944   0.33675   0.00000  Uiso   1.00
C143   C     0.64371   0.55935   0.30637   0.00000  Uiso   1.00
C144   C     0.66263   0.56553   0.27391   0.00000  Uiso   1.00
O109   O     0.71181   0.60011   0.24068   0.00000  Uiso   1.00
O110   O     0.73485   0.63906   0.30009   0.00000  Uiso   1.00
H31    H     0.69317   0.62210   0.35971   0.00000  Uiso   1.00
O111   O     0.63258   0.57124   0.36719   0.00000  Uiso   1.00
O112   O     0.61367   0.53326   0.30982   0.00000  Uiso   1.00
H32    H     0.65391   0.54978   0.25015   0.00000  Uiso   1.00
Fe24   Cu    0.59665   0.53452   0.35551   0.00000  Uiso   1.00
Fe25   Cu    0.50000   0.00000   1.00000   0.00000  Uiso   1.00
Fe26   Cu    0.50000   0.50000   0.50000   0.00000  Uiso   1.00
Fe27   Cu    0.00000   0.50000   0.00000   0.00000  Uiso   1.00
Fe28   Cu    1.00000   1.00000   0.50000   0.00000  Uiso   1.00
C145   C     0.25002   0.20914   0.25000   0.00000  Uiso   1.00
C146   C     0.21507   0.22987   0.24786   0.00000  Uiso   1.00
C147   C     0.21506   0.27010   0.25213   0.00000  Uiso   1.00
C148   C     0.25001   0.29083   0.25000   0.00000  Uiso   1.00
C149   C     0.28496   0.27011   0.24787   0.00000  Uiso   1.00
C150   C     0.28496   0.22988   0.25214   0.00000  Uiso   1.00
H33    H     0.25003   0.17769   0.25000   0.00000  Uiso   1.00
O113   O     0.17974   0.21156   0.24189   0.00000  Uiso   1.00
O114   O     0.17972   0.28840   0.25808   0.00000  Uiso   1.00
H34    H     0.25000   0.32229   0.25000   0.00000  Uiso   1.00
O115   O     0.32029   0.28842   0.24191   0.00000  Uiso   1.00
O116   O     0.32030   0.21157   0.25811   0.00000  Uiso   1.00
C151   C     0.20914   0.25002   0.75000   0.00000  Uiso   1.00
C152   C     0.22987   0.21507   0.75214   0.00000  Uiso   1.00
C153   C     0.27010   0.21506   0.74787   0.00000  Uiso   1.00
C154   C     0.29083   0.25001   0.75000   0.00000  Uiso   1.00
C155   C     0.27011   0.28496   0.75213   0.00000  Uiso   1.00
C156   C     0.22988   0.28496   0.74786   0.00000  Uiso   1.00
H35    H     0.17768   0.25003   0.75000   0.00000  Uiso   1.00
O117   O     0.21156   0.17974   0.75811   0.00000  Uiso   1.00
O118   O     0.28840   0.17972   0.74192   0.00000  Uiso   1.00
H36    H     0.32229   0.25000   0.75000   0.00000  Uiso   1.00
O119   O     0.28842   0.32029   0.75809   0.00000  Uiso   1.00
O120   O     0.21157   0.32030   0.74189   0.00000  Uiso   1.00
C157   C     0.75001   0.70918   0.75000   0.00000  Uiso   1.00
C158   C     0.78495   0.72991   0.74788   0.00000  Uiso   1.00
C159   C     0.78494   0.77014   0.75214   0.00000  Uiso   1.00
C160   C     0.74999   0.79086   0.75000   0.00000  Uiso   1.00
C161   C     0.71505   0.77013   0.74785   0.00000  Uiso   1.00
C162   C     0.71505   0.72990   0.75213   0.00000  Uiso   1.00
H37    H     0.75001   0.67772   0.75000   0.00000  Uiso   1.00
O121   O     0.82029   0.71161   0.74192   0.00000  Uiso   1.00
O122   O     0.82027   0.78845   0.75811   0.00000  Uiso   1.00
H38    H     0.74999   0.82232   0.75000   0.00000  Uiso   1.00
O123   O     0.67971   0.78843   0.74188   0.00000  Uiso   1.00
O124   O     0.67972   0.71159   0.75808   0.00000  Uiso   1.00
C163   C     0.70918   0.75001   0.25000   0.00000  Uiso   1.00
C164   C     0.72991   0.78495   0.25212   0.00000  Uiso   1.00
C165   C     0.77014   0.78494   0.24786   0.00000  Uiso   1.00
C166   C     0.79087   0.74999   0.25000   0.00000  Uiso   1.00
C167   C     0.77013   0.71505   0.25215   0.00000  Uiso   1.00
C168   C     0.72990   0.71506   0.24787   0.00000  Uiso   1.00
H39    H     0.67772   0.75001   0.24999   0.00000  Uiso   1.00
O125   O     0.71161   0.82029   0.25807   0.00000  Uiso   1.00
O126   O     0.78845   0.82027   0.24189   0.00000  Uiso   1.00
H40    H     0.82233   0.74999   0.25000   0.00000  Uiso   1.00
O127   O     0.78844   0.67972   0.25812   0.00000  Uiso   1.00
O128   O     0.71159   0.67972   0.24192   0.00000  Uiso   1.00
loop_
_geom_bond_atom_site_label_1
_geom_bond_atom_site_label_2
_geom_bond_distance
_geom_bond_site_symmetry_2
_ccdc_geom_bond_type
Fe1    O49     1.924   .     S
Fe1    O50     1.942   .     S
Fe1    O65     1.942   .     S
Fe1    O66     1.924   .     S
Fe1    O113    1.934   .     S
Fe1    O114    1.934   .     S
Fe2    O53     1.942   .     S
Fe2    O54     1.924   .     S
Fe2    O69     1.924   .     S
Fe2    O70     1.942   .     S
Fe2    O117    1.934   .     S
Fe2    O118    1.934   .     S
Fe3    O57     1.942   .     S
Fe3    O58     1.924   .     S
Fe3    O73     1.924   .     S
Fe3    O74     1.942   .     S
Fe3    O115    1.934   .     S
Fe3    O116    1.934   .     S
Fe4    O61     1.924   .     S
Fe4    O62     1.942   .     S
Fe4    O77     1.942   .     S
Fe4    O78     1.924   .     S
Fe4    O119    1.934   .     S
Fe4    O120    1.934   .     S
Fe5    O81     1.942   .     S
Fe5    O82     1.924   .     S
Fe5    O97     1.924   .     S
Fe5    O98     1.942   .     S
Fe5    O121    1.934   .     S
Fe5    O122    1.934   .     S
Fe6    O85     1.924   .     S
Fe6    O86     1.942   .     S
Fe6    O101    1.942   .     S
Fe6    O102    1.924   .     S
Fe6    O125    1.934   .     S
Fe6    O126    1.934   .     S
Fe7    O89     1.924   .     S
Fe7    O90     1.942   .     S
Fe7    O105    1.942   .     S
Fe7    O106    1.924   .     S
Fe7    O123    1.934   .     S
Fe7    O124    1.934   .     S
Fe8    O93     1.942   .     S
Fe8    O94     1.924   .     S
Fe8    O109    1.924   .     S
Fe8    O110    1.942   .     S
Fe8    O127    1.934   .     S
Fe8    O128    1.934   .     S
C1     C2      1.395   .     A
C1     C6      1.376   .     A
C1     O1      1.375   .     S
C2     C3      1.376   1_545 A
C2     O2      1.375   1_545 S
C3     C2      1.376   1_565 A
C3     C4      1.405   .     A
C3     O3      1.386   .     S
C4     C5      1.384   1_565 A
C4     O4      1.380   .     S
C5     C4      1.384   1_545 A
C5     C6      1.405   .     A
C5     O5      1.380   .     S
C6     O6      1.386   .     S
O1     Fe15    1.807   .     S
O2     C2      1.375   1_565 S
O2     Fe18    1.806   .     S
O3     Fe18    1.822   .     S
O4     Fe25    1.816   1_564 S
O5     Fe25    1.815   1_554 S
O6     Fe15    1.822   .     S
C7     C8      1.395   .     A
C7     C12     1.376   .     A
C7     O7      1.375   .     S
C8     C9      1.376   .     A
C8     O8      1.375   .     S
C9     C10     1.405   .     A
C9     O9      1.386   .     S
C10    C11     1.384   .     A
C10    O10     1.380   .     S
C11    C12     1.405   .     A
C11    O11     1.380   .     S
C12    O12     1.386   .     S
O7     Fe16    1.807   .     S
O8     Fe19    1.807   .     S
O9     Fe19    1.822   .     S
O10    Fe26    1.815   .     S
O11    Fe26    1.816   .     S
O12    Fe16    1.822   .     S
C13    C14     1.395   .     A
C13    C18     1.376   .     A
C13    O13     1.375   .     S
C14    C15     1.376   1_655 A
C14    O14     1.375   1_655 S
C15    C14     1.376   1_455 A
C15    C16     1.405   .     A
C15    O15     1.386   .     S
C16    C17     1.384   1_455 A
C16    O16     1.380   .     S
C17    C16     1.384   1_655 A
C17    C18     1.405   .     A
C17    O17     1.380   .     S
C18    O18     1.386   .     S
O13    Fe20    1.807   .     S
O14    C14     1.375   1_455 S
O14    Fe13    1.806   .     S
O15    Fe13    1.822   .     S
O16    Fe27    1.815   .     S
O17    Fe27    1.815   1_655 S
O18    Fe20    1.822   .     S
C19    C20     1.395   .     A
C19    C24     1.376   1_455 A
C19    O19     1.375   1_455 S
C20    C21     1.376   1_565 A
C20    O20     1.375   1_565 S
C21    C20     1.376   1_545 A
C21    C22     1.405   .     A
C21    O21     1.386   .     S
C22    C23     1.384   1_445 A
C22    O22     1.380   .     S
C23    C22     1.384   1_665 A
C23    C24     1.405   .     A
C23    O23     1.380   .     S
C24    C19     1.376   1_655 A
C24    O24     1.386   .     S
O19    C19     1.375   1_655 S
O19    Fe17    1.806   .     S
O20    C20     1.375   1_545 S
O20    Fe14    1.806   .     S
O21    Fe14    1.822   .     S
O22    Fe28    1.815   1_445 S
O23    Fe28    1.815   .     S
O24    Fe17    1.822   .     S
C25    C26     1.395   .     A
C25    C30     1.376   .     A
C25    O25     1.375   .     S
C26    C27     1.376   .     A
C26    O26     1.375   .     S
C27    C28     1.405   .     A
C27    O27     1.386   .     S
C28    C29     1.384   .     A
C28    O28     1.380   .     S
C29    C30     1.405   .     A
C29    O29     1.380   .     S
C30    O30     1.386   .     S
O25    Fe11    1.807   .     S
O26    Fe24    1.807   .     S
O27    Fe24    1.822   .     S
O28    Fe26    1.815   .     S
O29    Fe26    1.816   .     S
O30    Fe11    1.822   .     S
C31    C32     1.395   .     A
C31    C36     1.376   1_455 A
C31    O31     1.375   1_455 S
C32    C33     1.376   .     A
C32    O32     1.375   .     S
C33    C34     1.405   .     A
C33    O33     1.386   .     S
C34    C35     1.384   1_455 A
C34    O34     1.380   .     S
C35    C34     1.384   1_655 A
C35    C36     1.405   .     A
C35    O35     1.380   .     S
C36    C31     1.376   1_655 A
C36    O36     1.386   .     S
O31    C31     1.375   1_655 S
O31    Fe21    1.806   .     S
O32    Fe12    1.806   .     S
O33    Fe12    1.822   .     S
O34    Fe27    1.815   1_556 S
O35    Fe27    1.816   1_656 S
O36    Fe21    1.822   .     S
C37    C38     1.395   .     A
C37    C42     1.376   1_545 A
C37    O37     1.375   1_545 S
C38    C39     1.376   1_655 A
C38    O38     1.375   1_655 S
C39    C38     1.376   1_455 A
C39    C40     1.405   .     A
C39    O39     1.386   .     S
C40    C41     1.384   1_445 A
C40    O40     1.380   .     S
C41    C40     1.384   1_665 A
C41    C42     1.405   .     A
C41    O41     1.380   .     S
C42    C37     1.376   1_565 A
C42    O42     1.386   .     S
O37    C37     1.375   1_565 S
O37    Fe22    1.806   .     S
O38    C38     1.375   1_455 S
O38    Fe9     1.806   .     S
O39    Fe9     1.822   .     S
O40    Fe28    1.815   1_445 S
O41    Fe28    1.815   .     S
O42    Fe22    1.822   .     S
C43    C44     1.395   .     A
C43    C48     1.376   1_565 A
C43    O43     1.375   1_565 S
C44    C45     1.376   .     A
C44    O44     1.375   .     S
C45    C46     1.405   .     A
C45    O45     1.386   .     S
C46    C47     1.384   1_565 A
C46    O46     1.380   .     S
C47    C46     1.384   1_545 A
C47    C48     1.405   .     A
C47    O47     1.380   .     S
C48    C43     1.376   1_545 A
C48    O48     1.386   .     S
O43    C43     1.375   1_545 S
O43    Fe10    1.806   .     S
O44    Fe23    1.806   .     S
O45    Fe23    1.822   .     S
O46    Fe25    1.815   1_565 S
O47    Fe25    1.815   .     S
O48    Fe10    1.822   .     S
C49    C50     1.398   .     A
C49    C54     1.395   .     A
C49    O49     1.382   .     S
C50    C51     1.407   .     A
C50    O50     1.393   .     S
C51    C52     1.405   .     A
C51    H1      1.082   .     S
C52    C53     1.377   .     A
C52    O51     1.387   .     S
C53    C54     1.393   .     A
C53    O52     1.375   .     S
C54    H2      1.083   .     S
O51    Fe9     1.821   .     S
O52    Fe9     1.805   .     S
C55    C56     1.398   .     A
C55    C60     1.407   .     A
C55    O53     1.393   .     S
C56    C57     1.395   .     A
C56    O54     1.382   .     S
C57    C58     1.393   .     A
C57    H3      1.083   .     S
C58    C59     1.377   .     A
C58    O55     1.375   .     S
C59    C60     1.405   .     A
C59    O56     1.387   .     S
C60    H4      1.082   .     S
O55    Fe10    1.805   .     S
O56    Fe10    1.821   .     S
C61    C62     1.398   .     A
C61    C66     1.407   .     A
C61    O57     1.393   .     S
C62    C63     1.395   .     A
C62    O58     1.382   .     S
C63    C64     1.393   .     A
C63    H5      1.083   .     S
C64    C65     1.377   .     A
C64    O59     1.375   .     S
C65    C66     1.405   .     A
C65    O60     1.387   .     S
C66    H6      1.082   .     S
O59    Fe11    1.805   .     S
O60    Fe11    1.821   .     S
C67    C68     1.398   .     A
C67    C72     1.395   .     A
C67    O61     1.382   .     S
C68    C69     1.407   .     A
C68    O62     1.393   .     S
C69    C70     1.405   .     A
C69    H7      1.082   .     S
C70    C71     1.377   .     A
C70    O63     1.387   .     S
C71    C72     1.393   .     A
C71    O64     1.375   .     S
C72    H8      1.083   .     S
O63    Fe12    1.821   .     S
O64    Fe12    1.805   .     S
C73    C74     1.398   .     A
C73    C78     1.407   .     A
C73    O65     1.393   .     S
C74    C75     1.395   .     A
C74    O66     1.382   .     S
C75    C76     1.393   .     A
C75    H9      1.083   .     S
C76    C77     1.377   .     A
C76    O67     1.375   .     S
C77    C78     1.405   .     A
C77    O68     1.387   .     S
C78    H10     1.082   .     S
O67    Fe13    1.805   .     S
O68    Fe13    1.821   .     S
C79    C80     1.398   .     A
C79    C84     1.395   .     A
C79    O69     1.382   .     S
C80    C81     1.407   .     A
C80    O70     1.393   .     S
C81    C82     1.405   .     A
C81    H11     1.082   .     S
C82    C83     1.377   .     A
C82    O71     1.387   .     S
C83    C84     1.393   .     A
C83    O72     1.375   .     S
C84    H12     1.083   .     S
O71    Fe14    1.821   .     S
O72    Fe14    1.805   .     S
C85    C86     1.398   .     A
C85    C90     1.395   .     A
C85    O73     1.382   .     S
C86    C87     1.407   .     A
C86    O74     1.393   .     S
C87    C88     1.405   .     A
C87    H13     1.082   .     S
C88    C89     1.377   .     A
C88    O75     1.387   .     S
C89    C90     1.393   .     A
C89    O76     1.375   .     S
C90    H14     1.083   .     S
O75    Fe15    1.821   .     S
O76    Fe15    1.805   .     S
C91    C92     1.398   .     A
C91    C96     1.407   .     A
C91    O77     1.393   .     S
C92    C93     1.395   .     A
C92    O78     1.382   .     S
C93    C94     1.393   .     A
C93    H15     1.083   .     S
C94    C95     1.377   .     A
C94    O79     1.375   .     S
C95    C96     1.405   .     A
C95    O80     1.387   .     S
C96    H16     1.082   .     S
O79    Fe16    1.805   .     S
O80    Fe16    1.821   .     S
C97    C98     1.398   .     A
C97    C102    1.407   .     A
C97    O81     1.393   .     S
C98    C99     1.395   .     A
C98    O82     1.382   .     S
C99    C100    1.393   .     A
C99    H17     1.083   .     S
C100   C101    1.377   .     A
C100   O83     1.375   .     S
C101   C102    1.405   .     A
C101   O84     1.387   .     S
C102   H18     1.082   .     S
O83    Fe17    1.805   .     S
O84    Fe17    1.821   .     S
C103   C104    1.398   .     A
C103   C108    1.395   .     A
C103   O85     1.382   .     S
C104   C105    1.407   .     A
C104   O86     1.393   .     S
C105   C106    1.405   .     A
C105   H19     1.082   .     S
C106   C107    1.377   .     A
C106   O87     1.387   .     S
C107   C108    1.393   .     A
C107   O88     1.375   .     S
C108   H20     1.083   .     S
O87    Fe18    1.821   .     S
O88    Fe18    1.805   .     S
C109   C110    1.398   .     A
C109   C114    1.395   .     A
C109   O89     1.382   .     S
C110   C111    1.407   .     A
C110   O90     1.393   .     S
C111   C112    1.405   .     A
C111   H21     1.082   .     S
C112   C113    1.377   .     A
C112   O91     1.387   .     S
C113   C114    1.393   .     A
C113   O92     1.375   .     S
C114   H22     1.083   .     S
O91    Fe19    1.821   .     S
O92    Fe19    1.805   .     S
C115   C116    1.398   .     A
C115   C120    1.407   .     A
C115   O93     1.393   .     S
C116   C117    1.395   .     A
C116   O94     1.382   .     S
C117   C118    1.393   .     A
C117   H23     1.083   .     S
C118   C119    1.377   .     A
C118   O95     1.375   .     S
C119   C120    1.405   .     A
C119   O96     1.387   .     S
C120   H24     1.082   .     S
O95    Fe20    1.805   .     S
O96    Fe20    1.821   .     S
C121   C122    1.398   .     A
C121   C126    1.395   .     A
C121   O97     1.382   .     S
C122   C123    1.407   .     A
C122   O98     1.393   .     S
C123   C124    1.405   .     A
C123   H25     1.082   .     S
C124   C125    1.377   .     A
C124   O99     1.387   .     S
C125   C126    1.393   .     A
C125   O100    1.375   .     S
C126   H26     1.083   .     S
O99    Fe21    1.821   .     S
O100   Fe21    1.805   .     S
C127   C128    1.398   .     A
C127   C132    1.407   .     A
C127   O101    1.393   .     S
C128   C129    1.395   .     A
C128   O102    1.382   .     S
C129   C130    1.393   .     A
C129   H27     1.083   .     S
C130   C131    1.377   .     A
C130   O103    1.375   .     S
C131   C132    1.405   .     A
C131   O104    1.387   .     S
C132   H28     1.082   .     S
O103   Fe22    1.805   .     S
O104   Fe22    1.821   .     S
C133   C134    1.398   .     A
C133   C138    1.407   .     A
C133   O105    1.393   .     S
C134   C135    1.395   .     A
C134   O106    1.382   .     S
C135   C136    1.393   .     A
C135   H29     1.083   .     S
C136   C137    1.377   .     A
C136   O107    1.375   .     S
C137   C138    1.405   .     A
C137   O108    1.387   .     S
C138   H30     1.082   .     S
O107   Fe23    1.805   .     S
O108   Fe23    1.821   .     S
C139   C140    1.398   .     A
C139   C144    1.395   .     A
C139   O109    1.382   .     S
C140   C141    1.407   .     A
C140   O110    1.393   .     S
C141   C142    1.405   .     A
C141   H31     1.082   .     S
C142   C143    1.377   .     A
C142   O111    1.387   .     S
C143   C144    1.393   .     A
C143   O112    1.375   .     S
C144   H32     1.083   .     S
O111   Fe24    1.821   .     S
O112   Fe24    1.805   .     S
Fe25   O46     1.815   1_545 S
Fe25   O5      1.815   1_556 S
Fe25   O4      1.816   1_546 S
Fe27   O17     1.815   1_455 S
Fe27   O34     1.815   1_554 S
Fe27   O35     1.816   1_454 S
Fe28   O22     1.815   1_665 S
Fe28   O40     1.815   1_665 S
C145   C146    1.400   .     A
C145   C150    1.400   .     A
C145   H33     1.082   .     S
C146   C147    1.393   .     A
C146   O113    1.387   .     S
C147   C148    1.400   .     A
C147   O114    1.387   .     S
C148   C149    1.400   .     A
C148   H34     1.082   .     S
C149   C150    1.393   .     A
C149   O115    1.387   .     S
C150   O116    1.387   .     S
C151   C152    1.400   .     A
C151   C156    1.400   .     A
C151   H35     1.082   .     S
C152   C153    1.393   .     A
C152   O117    1.387   .     S
C153   C154    1.400   .     A
C153   O118    1.387   .     S
C154   C155    1.400   .     A
C154   H36     1.082   .     S
C155   C156    1.393   .     A
C155   O119    1.387   .     S
C156   O120    1.387   .     S
C157   C158    1.400   .     A
C157   C162    1.400   .     A
C157   H37     1.082   .     S
C158   C159    1.393   .     A
C158   O121    1.387   .     S
C159   C160    1.400   .     A
C159   O122    1.387   .     S
C160   C161    1.400   .     A
C160   H38     1.082   .     S
C161   C162    1.393   .     A
C161   O123    1.387   .     S
C162   O124    1.387   .     S
C163   C164    1.400   .     A
C163   C168    1.400   .     A
C163   H39     1.082   .     S
C164   C165    1.393   .     A
C164   O125    1.387   .     S
C165   C166    1.400   .     A
C165   O126    1.387   .     S
C166   C167    1.400   .     A
C166   H40     1.082   .     S
C167   C168    1.393   .     A
C167   O127    1.387   .     S
C168   O128    1.387   .     S
