data_etj-spacer-TN_O-Feoct
_audit_creation_date              2021-11-06
_audit_creation_method            'Materials Studio'
_symmetry_space_group_name_H-M    'P1'
_symmetry_Int_Tables_number       1
_symmetry_cell_setting            triclinic
loop_
_symmetry_equiv_pos_as_xyz
  x,y,z
_cell_length_a                    45.1599
_cell_length_b                    46.4392
_cell_length_c                    68.7938
_cell_angle_alpha                 89.8341
_cell_angle_beta                  90.0580
_cell_angle_gamma                 90.0959
loop_
_atom_site_label
_atom_site_type_symbol
_atom_site_fract_x
_atom_site_fract_y
_atom_site_fract_z
_atom_site_U_iso_or_equiv
_atom_site_adp_type
_atom_site_occupancy
Fe1    Fe    0.16686   0.25052   0.25077   0.00000  Uiso   1.00
Fe2    Fe    0.24501   0.16881   0.75103   0.00000  Uiso   1.00
Fe3    Fe    0.33518   0.25003   0.25078   0.00000  Uiso   1.00
Fe4    Fe    0.25609   0.33210   0.75185   0.00000  Uiso   1.00
Fe5    Fe    0.83357   0.74463   0.74842   0.00000  Uiso   1.00
Fe6    Fe    0.74872   0.83173   0.25010   0.00000  Uiso   1.00
Fe7    Fe    0.66555   0.75430   0.74951   0.00000  Uiso   1.00
Fe8    Fe    0.74932   0.66816   0.24816   0.00000  Uiso   1.00
C1     C     0.49540   0.04074   0.12423   0.00000  Uiso   1.00
C2     C     0.50906   0.03180   0.14191   0.00000  Uiso   1.00
C3     C     0.52847   1.00768   0.14217   0.00000  Uiso   1.00
C4     C     0.53721   0.99442   0.12447   0.00000  Uiso   1.00
C5     C     0.52383   1.00340   0.10663   0.00000  Uiso   1.00
C6     C     0.50346   0.02699   0.10643   0.00000  Uiso   1.00
C7     C     0.55954   0.97273   0.12522   0.00000  Uiso   1.00
C8     C     0.57129   0.96301   0.14291   0.00000  Uiso   1.00
C9     C     0.56052   0.97462   0.16040   0.00000  Uiso   1.00
C10    C     0.53906   0.99605   0.15992   0.00000  Uiso   1.00
C11    C     0.47380   0.06312   0.12505   0.00000  Uiso   1.00
C12    C     0.46739   0.07752   0.14243   0.00000  Uiso   1.00
C13    C     0.48284   0.06992   0.15945   0.00000  Uiso   1.00
C14    C     0.50360   0.04788   0.15900   0.00000  Uiso   1.00
C15    C     0.49226   0.03661   0.08823   0.00000  Uiso   1.00
C16    C     0.49924   0.02263   0.07088   0.00000  Uiso   1.00
C17    C     0.51785   0.99834   0.07125   0.00000  Uiso   1.00
C18    C     0.52971   0.98892   0.08889   0.00000  Uiso   1.00
C19    C     0.52453   0.98391   0.05381   0.00000  Uiso   1.00
C20    C     0.51279   0.99409   0.03633   0.00000  Uiso   1.00
C21    C     0.49480   0.01787   0.03593   0.00000  Uiso   1.00
C22    C     0.48770   0.03247   0.05301   0.00000  Uiso   1.00
C23    C     0.57191   0.96507   0.17827   0.00000  Uiso   1.00
C24    C     0.59417   0.94444   0.17850   0.00000  Uiso   1.00
C25    C     0.60478   0.93276   0.16159   0.00000  Uiso   1.00
C26    C     0.59357   0.94168   0.14355   0.00000  Uiso   1.00
H1     H     0.56899   0.96349   0.11231   0.00000  Uiso   1.00
H2     H     0.53055   1.00282   0.17381   0.00000  Uiso   1.00
H3     H     0.46104   0.06957   0.11256   0.00000  Uiso   1.00
H4     H     0.51582   0.04430   0.17224   0.00000  Uiso   1.00
H5     H     0.47844   0.05536   0.08690   0.00000  Uiso   1.00
H6     H     0.54303   0.96974   0.08829   0.00000  Uiso   1.00
H7     H     0.53878   0.96516   0.05375   0.00000  Uiso   1.00
O1     O     0.51843   0.98127   0.01863   0.00000  Uiso   1.00
O2     O     0.48444   0.02615   0.01787   0.00000  Uiso   1.00
H8     H     0.47337   0.05114   0.05234   0.00000  Uiso   1.00
H9     H     0.56407   0.97391   0.19189   0.00000  Uiso   1.00
O3     O     0.60699   0.93497   0.19549   0.00000  Uiso   1.00
O4     O     0.62693   0.91235   0.16372   0.00000  Uiso   1.00
H10    H     0.60221   0.93230   0.13032   0.00000  Uiso   1.00
C27    C     0.47702   0.08429   0.17695   0.00000  Uiso   1.00
C28    C     0.45570   0.10582   0.17733   0.00000  Uiso   1.00
C29    C     0.44049   0.11361   0.16087   0.00000  Uiso   1.00
C30    C     0.44600   0.09972   0.14316   0.00000  Uiso   1.00
H11    H     0.48858   0.07864   0.19023   0.00000  Uiso   1.00
O5     O     0.44857   0.12023   0.19412   0.00000  Uiso   1.00
O6     O     0.41990   0.13548   0.16313   0.00000  Uiso   1.00
H12    H     0.43383   0.10610   0.13028   0.00000  Uiso   1.00
C31    C     0.46480   0.49554   0.62476   0.00000  Uiso   1.00
C32    C     0.47356   0.50914   0.64235   0.00000  Uiso   1.00
C33    C     0.49239   0.53371   0.64188   0.00000  Uiso   1.00
C34    C     0.50597   0.54251   0.62416   0.00000  Uiso   1.00
C35    C     0.49809   0.52831   0.60646   0.00000  Uiso   1.00
C36    C     0.47786   0.50454   0.60682   0.00000  Uiso   1.00
C37    C     0.52725   0.56525   0.62484   0.00000  Uiso   1.00
C38    C     0.53318   0.58026   0.64206   0.00000  Uiso   1.00
C39    C     0.51752   0.57296   0.65906   0.00000  Uiso   1.00
C40    C     0.49726   0.55040   0.65878   0.00000  Uiso   1.00
C41    C     0.44279   0.47351   0.62573   0.00000  Uiso   1.00
C42    C     0.43157   0.46368   0.64353   0.00000  Uiso   1.00
C43    C     0.44263   0.47547   0.66092   0.00000  Uiso   1.00
C44    C     0.46364   0.49738   0.66022   0.00000  Uiso   1.00
C45    C     0.47183   0.48989   0.58917   0.00000  Uiso   1.00
C46    C     0.48352   0.49919   0.57146   0.00000  Uiso   1.00
C47    C     0.50218   0.52350   0.57093   0.00000  Uiso   1.00
C48    C     0.50925   0.53771   0.58820   0.00000  Uiso   1.00
C49    C     0.51364   0.53314   0.55300   0.00000  Uiso   1.00
C50    C     0.50634   0.51837   0.53600   0.00000  Uiso   1.00
C51    C     0.48824   0.49463   0.53655   0.00000  Uiso   1.00
C52    C     0.47662   0.48462   0.55410   0.00000  Uiso   1.00
C53    C     0.52267   0.58815   0.67635   0.00000  Uiso   1.00
C54    C     0.54364   0.61008   0.67659   0.00000  Uiso   1.00
C55    C     0.55922   0.61740   0.66018   0.00000  Uiso   1.00
C56    C     0.55427   0.60280   0.64265   0.00000  Uiso   1.00
H13    H     0.54006   0.57156   0.61235   0.00000  Uiso   1.00
H14    H     0.48487   0.54688   0.67197   0.00000  Uiso   1.00
H15    H     0.43325   0.46400   0.61292   0.00000  Uiso   1.00
H16    H     0.47238   0.50446   0.67400   0.00000  Uiso   1.00
H17    H     0.45850   0.47067   0.58866   0.00000  Uiso   1.00
H18    H     0.52308   0.55648   0.58676   0.00000  Uiso   1.00
H19    H     0.52805   0.55179   0.55222   0.00000  Uiso   1.00
O7     O     0.51657   0.52647   0.51787   0.00000  Uiso   1.00
O8     O     0.48233   0.48167   0.51892   0.00000  Uiso   1.00
H20    H     0.46228   0.46589   0.55415   0.00000  Uiso   1.00
H21    H     0.51087   0.58281   0.68959   0.00000  Uiso   1.00
O9     O     0.55011   0.62535   0.69317   0.00000  Uiso   1.00
O10    O     0.57959   0.63954   0.66230   0.00000  Uiso   1.00
H22    H     0.56664   0.60889   0.62980   0.00000  Uiso   1.00
C57    C     0.43195   0.46559   0.67891   0.00000  Uiso   1.00
C58    C     0.41000   0.44457   0.67933   0.00000  Uiso   1.00
C59    C     0.39894   0.43292   0.66251   0.00000  Uiso   1.00
C60    C     0.40954   0.44205   0.64438   0.00000  Uiso   1.00
H23    H     0.44008   0.47450   0.69245   0.00000  Uiso   1.00
O11    O     0.39790   0.43468   0.69645   0.00000  Uiso   1.00
O12    O     0.37698   0.41231   0.66482   0.00000  Uiso   1.00
H24    H     0.40062   0.43262   0.63123   0.00000  Uiso   1.00
C61    C     0.96000   0.50300   0.12377   0.00000  Uiso   1.00
C62    C     0.96827   0.48928   0.14150   0.00000  Uiso   1.00
C63    C    -0.00801   0.46908   0.14183   0.00000  Uiso   1.00
C64    C     0.00570   0.46031   0.12418   0.00000  Uiso   1.00
C65    C    -0.00267   0.47383   0.10631   0.00000  Uiso   1.00
C66    C     0.97387   0.49451   0.10603   0.00000  Uiso   1.00
C67    C     0.02714   0.43777   0.12499   0.00000  Uiso   1.00
C68    C     0.03611   0.42553   0.14268   0.00000  Uiso   1.00
C69    C     0.02393   0.43592   0.16011   0.00000  Uiso   1.00
C70    C     0.00284   0.45770   0.15960   0.00000  Uiso   1.00
C71    C     0.93818   0.52517   0.12444   0.00000  Uiso   1.00
C72    C     0.92344   0.53216   0.14168   0.00000  Uiso   1.00
C73    C     0.93032   0.51695   0.15881   0.00000  Uiso   1.00
C74    C     0.95193   0.49565   0.15853   0.00000  Uiso   1.00
C75    C     0.96443   0.50565   0.08781   0.00000  Uiso   1.00
C76    C     0.97873   0.49851   0.07051   0.00000  Uiso   1.00
C77    C     0.00311   0.47967   0.07094   0.00000  Uiso   1.00
C78    C     0.01219   0.46768   0.08860   0.00000  Uiso   1.00
C79    C     0.01790   0.47288   0.05352   0.00000  Uiso   1.00
C80    C     0.00798   0.48480   0.03604   0.00000  Uiso   1.00
C81    C     0.98408   0.50300   0.03562   0.00000  Uiso   1.00
C82    C     0.96912   0.51017   0.05266   0.00000  Uiso   1.00
C83    C     0.03261   0.42393   0.17798   0.00000  Uiso   1.00
C84    C     0.05301   0.40156   0.17825   0.00000  Uiso   1.00
C85    C     0.06535   0.39136   0.16140   0.00000  Uiso   1.00
C86    C     0.05723   0.40309   0.14337   0.00000  Uiso   1.00
H25    H     0.03674   0.42859   0.11211   0.00000  Uiso   1.00
H26    H    -0.00425   0.46572   0.17351   0.00000  Uiso   1.00
H27    H     0.93252   0.53799   0.11192   0.00000  Uiso   1.00
H28    H     0.95488   0.48385   0.17189   0.00000  Uiso   1.00
H29    H     0.94548   0.51952   0.08642   0.00000  Uiso   1.00
H30    H     0.03141   0.45403   0.08804   0.00000  Uiso   1.00
H31    H     0.03673   0.45845   0.05347   0.00000  Uiso   1.00
O13    O     0.02117   0.47915   0.01835   0.00000  Uiso   1.00
O14    O     0.97604   0.51353   0.01758   0.00000  Uiso   1.00
H32    H     0.95039   0.52469   0.05197   0.00000  Uiso   1.00
H33    H     0.02328   0.43145   0.19155   0.00000  Uiso   1.00
O15    O     0.06161   0.38826   0.19523   0.00000  Uiso   1.00
O16    O     0.08558   0.36914   0.16360   0.00000  Uiso   1.00
H34    H     0.06707   0.39475   0.13018   0.00000  Uiso   1.00
C87    C     0.91567   0.52354   0.17622   0.00000  Uiso   1.00
C88    C     0.89451   0.54524   0.17637   0.00000  Uiso   1.00
C89    C     0.88732   0.56009   0.15976   0.00000  Uiso   1.00
C90    C     0.90159   0.55393   0.14217   0.00000  Uiso   1.00
H35    H     0.92080   0.51223   0.18961   0.00000  Uiso   1.00
O17    O     0.87987   0.55310   0.19305   0.00000  Uiso   1.00
O18    O     0.86563   0.58098   0.16174   0.00000  Uiso   1.00
H36    H     0.89573   0.56587   0.12918   0.00000  Uiso   1.00
C91    C     0.99411   0.95802   0.62415   0.00000  Uiso   1.00
C92    C     1.00883   0.96559   0.64174   0.00000  Uiso   1.00
C93    C     0.02898  -0.01081   0.64210   0.00000  Uiso   1.00
C94    C     0.03827   0.00239   0.62442   0.00000  Uiso   1.00
C95    C     0.02537  -0.00672   0.60648   0.00000  Uiso   1.00
C96    C     1.00180   0.97262   0.60653   0.00000  Uiso   1.00
C97    C     0.05962   0.02503   0.62540   0.00000  Uiso   1.00
C98    C     0.07131   0.03445   0.64313   0.00000  Uiso   1.00
C99    C     0.06092   0.02210   0.66054   0.00000  Uiso   1.00
C100   C     0.03967   0.00039   0.65993   0.00000  Uiso   1.00
C101   C     0.97287   0.93523   0.62472   0.00000  Uiso   1.00
C102   C     0.96676   0.92006   0.64190   0.00000  Uiso   1.00
C103   C     0.98260   0.92684   0.65891   0.00000  Uiso   1.00
C104   C     1.00357   0.94880   0.65862   0.00000  Uiso   1.00
C105   C     0.98701   0.96678   0.58872   0.00000  Uiso   1.00
C106   C     0.99631   0.97899   0.57117   0.00000  Uiso   1.00
C107   C     0.02088  -0.00233   0.57096   0.00000  Uiso   1.00
C108   C     0.03509   0.00455   0.58836   0.00000  Uiso   1.00
C109   C     0.03074   0.00950   0.55323   0.00000  Uiso   1.00
C110   C     0.01587   0.00262   0.53607   0.00000  Uiso   1.00
C111   C     0.99181   0.98454   0.53626   0.00000  Uiso   1.00
C112   C     0.98162   0.97247   0.55363   0.00000  Uiso   1.00
C113   C     0.07198   0.03171   0.67848   0.00000  Uiso   1.00
C114   C     0.09355   0.05311   0.67882   0.00000  Uiso   1.00
C115   C     0.10396   0.06530   0.66196   0.00000  Uiso   1.00
C116   C     0.09298   0.05643   0.64389   0.00000  Uiso   1.00
H37    H     0.06732   0.03635   0.61271   0.00000  Uiso   1.00
H38    H     0.03116  -0.00676   0.67376   0.00000  Uiso   1.00
H39    H     0.96102   0.92819   0.61202   0.00000  Uiso   1.00
H40    H     1.01630   0.95162   0.67175   0.00000  Uiso   1.00
H41    H     0.96791   0.95296   0.58792   0.00000  Uiso   1.00
H42    H     0.05403   0.01850   0.58714   0.00000  Uiso   1.00
H43    H     0.04961   0.02392   0.55271   0.00000  Uiso   1.00
O19    O     0.02417   0.01333   0.51813   0.00000  Uiso   1.00
O20    O     0.97876   0.97915   0.51847   0.00000  Uiso   1.00
H44    H     0.96266   0.95815   0.55341   0.00000  Uiso   1.00
H45    H     0.06426   0.02248   0.69205   0.00000  Uiso   1.00
O21    O     0.10576   0.06301   0.69588   0.00000  Uiso   1.00
O22    O     0.12557   0.08628   0.66417   0.00000  Uiso   1.00
H46    H     0.10134   0.06634   0.63071   0.00000  Uiso   1.00
C117   C     0.97729   0.91139   0.67614   0.00000  Uiso   1.00
C118   C     0.95607   0.88966   0.67626   0.00000  Uiso   1.00
C119   C     0.94039   0.88281   0.65982   0.00000  Uiso   1.00
C120   C     0.94546   0.89770   0.64237   0.00000  Uiso   1.00
H47    H     0.98927   0.91627   0.68939   0.00000  Uiso   1.00
O23    O     0.94958   0.87402   0.69274   0.00000  Uiso   1.00
O24    O     0.91985   0.86076   0.66179   0.00000  Uiso   1.00
H48    H     0.93299   0.89197   0.62949   0.00000  Uiso   1.00
C121   C     0.49658   0.46084   0.37607   0.00000  Uiso   1.00
C122   C     0.51019   0.46950   0.35832   0.00000  Uiso   1.00
C123   C     0.52953   0.49372   0.35785   0.00000  Uiso   1.00
C124   C     0.53834   0.50734   0.37543   0.00000  Uiso   1.00
C125   C     0.52510   0.49857   0.39336   0.00000  Uiso   1.00
C126   C     0.50470   0.47493   0.39375   0.00000  Uiso   1.00
C127   C     0.56061   0.52914   0.37446   0.00000  Uiso   1.00
C128   C     0.57229   0.53854   0.35668   0.00000  Uiso   1.00
C129   C     0.56146   0.52654   0.33931   0.00000  Uiso   1.00
C130   C     0.53999   0.50508   0.33999   0.00000  Uiso   1.00
C131   C     0.47501   0.43834   0.37542   0.00000  Uiso   1.00
C132   C     0.46864   0.42354   0.35818   0.00000  Uiso   1.00
C133   C     0.48408   0.43087   0.34111   0.00000  Uiso   1.00
C134   C     0.50478   0.45304   0.34138   0.00000  Uiso   1.00
C135   C     0.49358   0.46558   0.41203   0.00000  Uiso   1.00
C136   C     0.50076   0.47978   0.42928   0.00000  Uiso   1.00
C137   C     0.51948   0.50404   0.42872   0.00000  Uiso   1.00
C138   C     0.53120   0.51326   0.41100   0.00000  Uiso   1.00
C139   C     0.52644   0.51862   0.44607   0.00000  Uiso   1.00
C140   C     0.51483   0.50865   0.46364   0.00000  Uiso   1.00
C141   C     0.49670   0.48493   0.46421   0.00000  Uiso   1.00
C142   C     0.48933   0.47017   0.44722   0.00000  Uiso   1.00
C143   C     0.57281   0.53572   0.32134   0.00000  Uiso   1.00
C144   C     0.59514   0.55634   0.32092   0.00000  Uiso   1.00
C145   C     0.60581   0.56842   0.33771   0.00000  Uiso   1.00
C146   C     0.59461   0.55990   0.35583   0.00000  Uiso   1.00
H49    H     0.57007   0.53873   0.38728   0.00000  Uiso   1.00
H50    H     0.53139   0.49802   0.32617   0.00000  Uiso   1.00
H51    H     0.46226   0.43209   0.38796   0.00000  Uiso   1.00
H52    H     0.51701   0.45640   0.32812   0.00000  Uiso   1.00
H53    H     0.47970   0.44685   0.41349   0.00000  Uiso   1.00
H54    H     0.54462   0.53241   0.41148   0.00000  Uiso   1.00
H55    H     0.54081   0.53733   0.44601   0.00000  Uiso   1.00
O25    O     0.52075   0.52163   0.48127   0.00000  Uiso   1.00
O26    O     0.48650   0.47683   0.48234   0.00000  Uiso   1.00
H56    H     0.47489   0.45154   0.44803   0.00000  Uiso   1.00
H57    H     0.56494   0.52655   0.30782   0.00000  Uiso   1.00
O27    O     0.60800   0.56539   0.30383   0.00000  Uiso   1.00
O28    O     0.62803   0.58877   0.33538   0.00000  Uiso   1.00
H58    H     0.60331   0.56957   0.36896   0.00000  Uiso   1.00
C147   C     0.47830   0.41612   0.32374   0.00000  Uiso   1.00
C148   C     0.45702   0.39450   0.32351   0.00000  Uiso   1.00
C149   C     0.44182   0.38695   0.34002   0.00000  Uiso   1.00
C150   C     0.44730   0.40121   0.35761   0.00000  Uiso   1.00
H59    H     0.48986   0.42158   0.31042   0.00000  Uiso   1.00
O29    O     0.44990   0.37978   0.30683   0.00000  Uiso   1.00
O30    O     0.42127   0.36495   0.33792   0.00000  Uiso   1.00
H60    H     0.43513   0.39503   0.37053   0.00000  Uiso   1.00
C151   C     0.99617   0.53640   0.87509   0.00000  Uiso   1.00
C152   C     1.00994   0.52760   0.85747   0.00000  Uiso   1.00
C153   C     0.03414   0.50799   0.85791   0.00000  Uiso   1.00
C154   C     0.04245   0.49435   0.87565   0.00000  Uiso   1.00
C155   C     0.02839   0.50270   0.89335   0.00000  Uiso   1.00
C156   C     1.00478   0.52321   0.89302   0.00000  Uiso   1.00
C157   C     0.06455   0.47245   0.87501   0.00000  Uiso   1.00
C158   C     0.07972   0.46595   0.85784   0.00000  Uiso   1.00
C159   C     0.07306   0.48141   0.84077   0.00000  Uiso   1.00
C160   C     0.05096   0.50225   0.84098   0.00000  Uiso   1.00
C161   C     0.97441   0.55861   0.87416   0.00000  Uiso   1.00
C162   C     0.96503   0.57027   0.85639   0.00000  Uiso   1.00
C163   C     0.97704   0.55956   0.83898   0.00000  Uiso   1.00
C164   C     0.99864   0.53825   0.83962   0.00000  Uiso   1.00
C165   C     0.98996   0.52945   0.91073   0.00000  Uiso   1.00
C166   C     0.99914   0.51763   0.92842   0.00000  Uiso   1.00
C167   C     0.02357   0.49884   0.92887   0.00000  Uiso   1.00
C168   C     0.03788   0.49167   0.91159   0.00000  Uiso   1.00
C169   C     0.03322   0.48729   0.94674   0.00000  Uiso   1.00
C170   C     0.01829   0.49452   0.96378   0.00000  Uiso   1.00
C171   C     0.99437   0.51270   0.96335   0.00000  Uiso   1.00
C172   C     0.98439   0.52451   0.94584   0.00000  Uiso   1.00
C173   C     0.08843   0.47555   0.82351   0.00000  Uiso   1.00
C174   C     0.11000   0.45422   0.82343   0.00000  Uiso   1.00
C175   C     0.11675   0.43893   0.83994   0.00000  Uiso   1.00
C176   C     0.10185   0.44445   0.85739   0.00000  Uiso   1.00
H61    H     0.07016   0.45956   0.88750   0.00000  Uiso   1.00
H62    H     0.04800   0.51430   0.82771   0.00000  Uiso   1.00
H63    H     0.96480   0.56793   0.88699   0.00000  Uiso   1.00
H64    H     1.00576   0.52990   0.82580   0.00000  Uiso   1.00
H65    H     0.97072   0.54306   0.91128   0.00000  Uiso   1.00
H66    H     0.05688   0.47786   0.91301   0.00000  Uiso   1.00
H67    H     0.05199   0.47281   0.94745   0.00000  Uiso   1.00
O31    O     0.02637   0.48407   0.98183   0.00000  Uiso   1.00
O32    O     0.98122   0.51842   0.98103   0.00000  Uiso   1.00
H68    H     0.96553   0.53890   0.94587   0.00000  Uiso   1.00
H69    H     0.08357   0.48716   0.81020   0.00000  Uiso   1.00
O33    O     0.12552   0.44719   0.80693   0.00000  Uiso   1.00
O34    O     0.13870   0.41830   0.83802   0.00000  Uiso   1.00
H70    H     0.10748   0.43227   0.87033   0.00000  Uiso   1.00
C177   C     0.96766   0.57078   0.82103   0.00000  Uiso   1.00
C178   C     0.94684   0.59281   0.82065   0.00000  Uiso   1.00
C179   C     0.93491   0.60346   0.83749   0.00000  Uiso   1.00
C180   C     0.94360   0.59242   0.85559   0.00000  Uiso   1.00
H71    H     0.97676   0.56292   0.80748   0.00000  Uiso   1.00
O35    O     0.93740   0.60531   0.80358   0.00000  Uiso   1.00
O36    O     0.91444   0.62543   0.83524   0.00000  Uiso   1.00
H72    H     0.93397   0.60105   0.86875   0.00000  Uiso   1.00
C181   C     0.95910   0.99624   0.37575   0.00000  Uiso   1.00
C182   C     0.96738   1.01032   0.35816   0.00000  Uiso   1.00
C183   C    -0.00891   0.03060   0.35806   0.00000  Uiso   1.00
C184   C     0.00479   0.03908   0.37581   0.00000  Uiso   1.00
C185   C    -0.00367   0.02525   0.39355   0.00000  Uiso   1.00
C186   C     0.97282   1.00455   0.39359   0.00000  Uiso   1.00
C187   C     0.02625   0.06168   0.37523   0.00000  Uiso   1.00
C188   C     0.03526   0.07427   0.35767   0.00000  Uiso   1.00
C189   C     0.02310   0.06415   0.34012   0.00000  Uiso   1.00
C190   C     0.00197   0.04233   0.34041   0.00000  Uiso   1.00
C191   C     0.93746   0.97387   0.37484   0.00000  Uiso   1.00
C192   C     0.92276   0.96712   0.35752   0.00000  Uiso   1.00
C193   C     0.92951   0.98276   0.34054   0.00000  Uiso   1.00
C194   C     0.95105   1.00420   0.34104   0.00000  Uiso   1.00
C195   C     0.96312   0.99325   0.41170   0.00000  Uiso   1.00
C196   C     0.97732   1.00013   0.42911   0.00000  Uiso   1.00
C197   C     0.00183   0.01889   0.42891   0.00000  Uiso   1.00
C198   C     0.01111   0.03111   0.41136   0.00000  Uiso   1.00
C199   C     0.01653   0.02540   0.44644   0.00000  Uiso   1.00
C200   C     0.00635   0.01329   0.46381   0.00000  Uiso   1.00
C201   C     0.98231   0.99519   0.46399   0.00000  Uiso   1.00
C202   C     0.96746   0.98828   0.44683   0.00000  Uiso   1.00
C203   C     0.03181   0.07647   0.32237   0.00000  Uiso   1.00
C204   C     0.05221   0.09890   0.32232   0.00000  Uiso   1.00
C205   C     0.06452   0.10887   0.33926   0.00000  Uiso   1.00
C206   C     0.05638   0.09680   0.35719   0.00000  Uiso   1.00
H73    H     0.03584   0.07064   0.38821   0.00000  Uiso   1.00
H74    H    -0.00512   0.03456   0.32642   0.00000  Uiso   1.00
H75    H     0.93197   0.96071   0.38723   0.00000  Uiso   1.00
H76    H     0.95397   1.01629   0.32780   0.00000  Uiso   1.00
H77    H     0.94401   0.97948   0.41291   0.00000  Uiso   1.00
H78    H     0.03039   0.04473   0.41209   0.00000  Uiso   1.00
H79    H     0.03546   0.03975   0.44667   0.00000  Uiso   1.00
O37    O     0.01941   0.01867   0.48160   0.00000  Uiso   1.00
O38    O     0.97401   0.98447   0.48193   0.00000  Uiso   1.00
H80    H     0.94862   0.97383   0.44734   0.00000  Uiso   1.00
H81    H     0.02250   0.06915   0.30872   0.00000  Uiso   1.00
O39    O     0.06082   0.11249   0.30545   0.00000  Uiso   1.00
O40    O     0.08473   0.13121   0.33726   0.00000  Uiso   1.00
H82    H     0.06619   0.10495   0.37046   0.00000  Uiso   1.00
C207   C     0.91484   0.97641   0.32306   0.00000  Uiso   1.00
C208   C     0.89382   0.95452   0.32270   0.00000  Uiso   1.00
C209   C     0.88680   0.93924   0.33917   0.00000  Uiso   1.00
C210   C     0.90107   0.94515   0.35681   0.00000  Uiso   1.00
H83    H     0.91987   0.98806   0.30979   0.00000  Uiso   1.00
O41    O     0.87915   0.94687   0.30595   0.00000  Uiso   1.00
O42    O     0.86526   0.91818   0.33700   0.00000  Uiso   1.00
H84    H     0.89535   0.93286   0.36968   0.00000  Uiso   1.00
C211   C     0.45928   0.00723   0.87566   0.00000  Uiso   1.00
C212   C     0.46777  -0.00614   0.85792   0.00000  Uiso   1.00
C213   C     0.48809   0.97039   0.85807   0.00000  Uiso   1.00
C214   C     0.50200   0.96170   0.87573   0.00000  Uiso   1.00
C215   C     0.49383   0.97530   0.89355   0.00000  Uiso   1.00
C216   C     0.47324  -0.00130   0.89340   0.00000  Uiso   1.00
C217   C     0.52409   0.93976   0.87490   0.00000  Uiso   1.00
C218   C     0.53102   0.92569   0.85749   0.00000  Uiso   1.00
C219   C     0.51575   0.93329   0.84041   0.00000  Uiso   1.00
C220   C     0.49435   0.95476   0.84089   0.00000  Uiso   1.00
C221   C     0.43652   0.02851   0.87508   0.00000  Uiso   1.00
C222   C     0.42381   0.03759   0.85753   0.00000  Uiso   1.00
C223   C     0.43389   0.02560   0.83999   0.00000  Uiso   1.00
C224   C     0.45592   0.00471   0.84027   0.00000  Uiso   1.00
C225   C     0.46761   0.01336   0.91111   0.00000  Uiso   1.00
C226   C     0.47975   0.00413   0.92871   0.00000  Uiso   1.00
C227   C     0.49838   0.97986   0.92908   0.00000  Uiso   1.00
C228   C     0.50522   0.96580   0.91174   0.00000  Uiso   1.00
C229   C     0.51012   0.97015   0.94692   0.00000  Uiso   1.00
C230   C     0.50316   0.98485   0.96399   0.00000  Uiso   1.00
C231   C     0.48517   0.00863   0.96360   0.00000  Uiso   1.00
C232   C     0.47324   0.01868   0.94614   0.00000  Uiso   1.00
C233   C     0.52240   0.91951   0.82281   0.00000  Uiso   1.00
C234   C     0.54421   0.89846   0.82243   0.00000  Uiso   1.00
C235   C     0.55903   0.89046   0.83901   0.00000  Uiso   1.00
C236   C     0.55283   0.90388   0.85678   0.00000  Uiso   1.00
H85    H     0.53691   0.93348   0.88740   0.00000  Uiso   1.00
H86    H     0.48244   0.95821   0.82753   0.00000  Uiso   1.00
H87    H     0.42741   0.03788   0.88805   0.00000  Uiso   1.00
H88    H     0.46370  -0.00224   0.82627   0.00000  Uiso   1.00
H89    H     0.45428   0.03252   0.91172   0.00000  Uiso   1.00
H90    H     0.51907   0.94707   0.91305   0.00000  Uiso   1.00
H91    H     0.52448   0.95151   0.94759   0.00000  Uiso   1.00
O43    O     0.51367   0.97666   0.98204   0.00000  Uiso   1.00
O44    O     0.47967   0.02155   0.98129   0.00000  Uiso   1.00
H92    H     0.45897   0.03741   0.94621   0.00000  Uiso   1.00
H93    H     0.51107   0.92525   0.80946   0.00000  Uiso   1.00
O45    O     0.55222   0.88472   0.80555   0.00000  Uiso   1.00
O46    O     0.57997   0.86890   0.83678   0.00000  Uiso   1.00
H94    H     0.56479   0.89744   0.86973   0.00000  Uiso   1.00
C237   C     0.42128   0.03423   0.82226   0.00000  Uiso   1.00
C238   C     0.39864   0.05446   0.82224   0.00000  Uiso   1.00
C239   C     0.38888   0.06675   0.83917   0.00000  Uiso   1.00
C240   C     0.40119   0.05861   0.85707   0.00000  Uiso   1.00
H95    H     0.42849   0.02500   0.80862   0.00000  Uiso   1.00
O47    O     0.38463   0.06295   0.80542   0.00000  Uiso   1.00
O48    O     0.36644   0.08690   0.83720   0.00000  Uiso   1.00
H96    H     0.39313   0.06835   0.87034   0.00000  Uiso   1.00
C241   C     0.13118   0.20874   0.26427   0.00000  Uiso   1.00
C242   C     0.14597   0.21887   0.28076   0.00000  Uiso   1.00
C243   C     0.14037   0.20627   0.29903   0.00000  Uiso   1.00
C244   C     0.12020   0.18325   0.30019   0.00000  Uiso   1.00
C245   C     0.10644   0.17310   0.28371   0.00000  Uiso   1.00
C246   C     0.11143   0.18570   0.26561   0.00000  Uiso   1.00
O49    O     0.13674   0.22187   0.24659   0.00000  Uiso   1.00
O50    O     0.16612   0.24133   0.27833   0.00000  Uiso   1.00
H97    H     0.15149   0.21407   0.31193   0.00000  Uiso   1.00
O51    O     0.11291   0.16926   0.31738   0.00000  Uiso   1.00
O52    O     0.08774   0.14997   0.28611   0.00000  Uiso   1.00
H98    H     0.10027   0.17766   0.25279   0.00000  Uiso   1.00
Fe9    Cu    0.08662   0.14075   0.31160   0.00000  Uiso   1.00
C247   C     0.27699   0.14771   0.78100   0.00000  Uiso   1.00
C248   C     0.28652   0.13267   0.76458   0.00000  Uiso   1.00
C249   C     0.30965   0.11290   0.76588   0.00000  Uiso   1.00
C250   C     0.32291   0.10813   0.78388   0.00000  Uiso   1.00
C251   C     0.31319   0.12202   0.80032   0.00000  Uiso   1.00
C252   C     0.29013   0.14224   0.79919   0.00000  Uiso   1.00
O53    O     0.25464   0.16804   0.77856   0.00000  Uiso   1.00
O54    O     0.27278   0.13806   0.74699   0.00000  Uiso   1.00
H99    H     0.31731   0.10161   0.75309   0.00000  Uiso   1.00
O55    O     0.34632   0.08954   0.78621   0.00000  Uiso   1.00
O56    O     0.32770   0.11485   0.81744   0.00000  Uiso   1.00
H100   H     0.28276   0.15353   0.81204   0.00000  Uiso   1.00
Fe10   Cu    0.35626   0.08863   0.81162   0.00000  Uiso   1.00
C253   C     0.35688   0.28075   0.28086   0.00000  Uiso   1.00
C254   C     0.37226   0.29045   0.26446   0.00000  Uiso   1.00
C255   C     0.39400   0.31168   0.26611   0.00000  Uiso   1.00
C256   C     0.39990   0.32331   0.28435   0.00000  Uiso   1.00
C257   C     0.38456   0.31444   0.30059   0.00000  Uiso   1.00
C258   C     0.36285   0.29285   0.29918   0.00000  Uiso   1.00
O57    O     0.33586   0.25912   0.27831   0.00000  Uiso   1.00
O58    O     0.36546   0.27857   0.24660   0.00000  Uiso   1.00
H101   H     0.40605   0.31903   0.25343   0.00000  Uiso   1.00
O59    O     0.42113   0.34416   0.28715   0.00000  Uiso   1.00
O60    O     0.39206   0.32806   0.31782   0.00000  Uiso   1.00
H102   H     0.35092   0.28567   0.31195   0.00000  Uiso   1.00
Fe11   Cu    0.42106   0.35418   0.31249   0.00000  Uiso   1.00
C259   C     0.21644   0.37001   0.76546   0.00000  Uiso   1.00
C260   C     0.22508   0.35419   0.78182   0.00000  Uiso   1.00
C261   C     0.21224   0.36004   0.80001   0.00000  Uiso   1.00
C262   C     0.19091   0.38196   0.80129   0.00000  Uiso   1.00
C263   C     0.18303   0.39757   0.78505   0.00000  Uiso   1.00
C264   C     0.19550   0.39191   0.76697   0.00000  Uiso   1.00
O61    O     0.22896   0.36340   0.74771   0.00000  Uiso   1.00
O62    O     0.24633   0.33280   0.77934   0.00000  Uiso   1.00
H103   H     0.21856   0.34781   0.81277   0.00000  Uiso   1.00
O63    O     0.17651   0.38933   0.81835   0.00000  Uiso   1.00
O64    O     0.16220   0.41877   0.78767   0.00000  Uiso   1.00
H104   H     0.18892   0.40420   0.75429   0.00000  Uiso   1.00
Fe12   Cu    0.15078   0.41837   0.81280   0.00000  Uiso   1.00
C265   C     0.14639   0.28215   0.22065   0.00000  Uiso   1.00
C266   C     0.13159   0.29242   0.23706   0.00000  Uiso   1.00
C267   C     0.11195   0.31549   0.23559   0.00000  Uiso   1.00
C268   C     0.10708   0.32795   0.21743   0.00000  Uiso   1.00
C269   C     0.12085   0.31763   0.20103   0.00000  Uiso   1.00
C270   C     0.14092   0.29462   0.20233   0.00000  Uiso   1.00
O65    O     0.16643   0.25969   0.22321   0.00000  Uiso   1.00
O66    O     0.13699   0.27937   0.25480   0.00000  Uiso   1.00
H105   H     0.10078   0.32364   0.24835   0.00000  Uiso   1.00
O67    O     0.08847   0.35107   0.21487   0.00000  Uiso   1.00
O68    O     0.11366   0.33145   0.18376   0.00000  Uiso   1.00
H106   H     0.15204   0.28669   0.18949   0.00000  Uiso   1.00
Fe13   Cu    0.08740   0.35997   0.18932   0.00000  Uiso   1.00
C271   C     0.20090   0.13541   0.73772   0.00000  Uiso   1.00
C272   C     0.21199   0.14916   0.72115   0.00000  Uiso   1.00
C273   C     0.19959   0.14324   0.70282   0.00000  Uiso   1.00
C274   C     0.17603   0.12353   0.70163   0.00000  Uiso   1.00
C275   C     0.16513   0.11049   0.71814   0.00000  Uiso   1.00
C276   C     0.17730   0.11610   0.73636   0.00000  Uiso   1.00
O69    O     0.21384   0.14130   0.75549   0.00000  Uiso   1.00
O70    O     0.23538   0.16843   0.72352   0.00000  Uiso   1.00
H107   H     0.20810   0.15360   0.68986   0.00000  Uiso   1.00
O71    O     0.16236   0.11581   0.68436   0.00000  Uiso   1.00
O72    O     0.14186   0.09171   0.71563   0.00000  Uiso   1.00
H108   H     0.16866   0.10556   0.74922   0.00000  Uiso   1.00
Fe14   Cu    0.13388   0.08929   0.68996   0.00000  Uiso   1.00
C277   C     0.37175   0.20944   0.23693   0.00000  Uiso   1.00
C278   C     0.35629   0.21926   0.22060   0.00000  Uiso   1.00
C279   C     0.36202   0.20724   0.20224   0.00000  Uiso   1.00
C280   C     0.38358   0.18560   0.20073   0.00000  Uiso   1.00
C281   C     0.39898   0.17656   0.21691   0.00000  Uiso   1.00
C282   C     0.39331   0.18812   0.23519   0.00000  Uiso   1.00
O73    O     0.36523   0.22129   0.25484   0.00000  Uiso   1.00
O74    O     0.33544   0.24094   0.22325   0.00000  Uiso   1.00
H109   H     0.35002   0.21451   0.18952   0.00000  Uiso   1.00
O75    O     0.39088   0.17209   0.18344   0.00000  Uiso   1.00
O76    O     0.42001   0.15563   0.21401   0.00000  Uiso   1.00
H110   H     0.40543   0.18067   0.24782   0.00000  Uiso   1.00
Fe15   Cu    0.41981   0.14590   0.18862   0.00000  Uiso   1.00
C283   C     0.28948   0.35126   0.72199   0.00000  Uiso   1.00
C284   C     0.30087   0.36473   0.73854   0.00000  Uiso   1.00
C285   C     0.32501   0.38343   0.73715   0.00000  Uiso   1.00
C286   C     0.33733   0.38873   0.71892   0.00000  Uiso   1.00
C287   C     0.32600   0.37607   0.70243   0.00000  Uiso   1.00
C288   C     0.30197   0.35694   0.70366   0.00000  Uiso   1.00
O77    O     0.26571   0.33246   0.72437   0.00000  Uiso   1.00
O78    O     0.28769   0.35915   0.75629   0.00000  Uiso   1.00
H111   H     0.33394   0.39371   0.74998   0.00000  Uiso   1.00
O79    O     0.36119   0.40681   0.71635   0.00000  Uiso   1.00
O80    O     0.33974   0.38352   0.68513   0.00000  Uiso   1.00
H112   H     0.29317   0.34682   0.69072   0.00000  Uiso   1.00
Fe16   Cu    0.36897   0.40924   0.69065   0.00000  Uiso   1.00
C289   C     0.85587   0.77510   0.71831   0.00000  Uiso   1.00
C290   C     0.87219   0.78363   0.73459   0.00000  Uiso   1.00
C291   C     0.89446   0.80435   0.73295   0.00000  Uiso   1.00
C292   C     0.89994   0.81670   0.71484   0.00000  Uiso   1.00
C293   C     0.88385   0.80886   0.69869   0.00000  Uiso   1.00
C294   C     0.86159   0.78777   0.70008   0.00000  Uiso   1.00
O81    O     0.83410   0.75415   0.72090   0.00000  Uiso   1.00
O82    O     0.86568   0.77125   0.75237   0.00000  Uiso   1.00
H113   H     0.90713   0.81086   0.74557   0.00000  Uiso   1.00
O83    O     0.92141   0.83737   0.71210   0.00000  Uiso   1.00
O84    O     0.89109   0.82308   0.68158   0.00000  Uiso   1.00
H114   H     0.84897   0.78151   0.68739   0.00000  Uiso   1.00
Fe17   Cu    0.92046   0.84875   0.68699   0.00000  Uiso   1.00
C295   C     0.70504   0.86568   0.23685   0.00000  Uiso   1.00
C296   C     0.71565   0.85167   0.22031   0.00000  Uiso   1.00
C297   C     0.70276   0.85722   0.20206   0.00000  Uiso   1.00
C298   C     0.67898   0.87660   0.20095   0.00000  Uiso   1.00
C299   C     0.66828   0.88960   0.21747   0.00000  Uiso   1.00
C300   C     0.68114   0.88459   0.23558   0.00000  Uiso   1.00
O85    O     0.71866   0.86029   0.25450   0.00000  Uiso   1.00
O86    O     0.73897   0.83239   0.22262   0.00000  Uiso   1.00
H115   H     0.71097   0.84672   0.18913   0.00000  Uiso   1.00
O87    O     0.66483   0.88392   0.18375   0.00000  Uiso   1.00
O88    O     0.64444   0.90766   0.21506   0.00000  Uiso   1.00
H116   H     0.67273   0.89518   0.24843   0.00000  Uiso   1.00
Fe18   Cu    0.63579   0.90963   0.18946   0.00000  Uiso   1.00
C301   C     0.62728   0.71508   0.73560   0.00000  Uiso   1.00
C302   C     0.64341   0.72408   0.71934   0.00000  Uiso   1.00
C303   C     0.63767   0.71178   0.70105   0.00000  Uiso   1.00
C304   C     0.61557   0.69058   0.69955   0.00000  Uiso   1.00
C305   C     0.59965   0.68224   0.71568   0.00000  Uiso   1.00
C306   C     0.60518   0.69421   0.73387   0.00000  Uiso   1.00
O89    O     0.63382   0.72719   0.75344   0.00000  Uiso   1.00
O90    O     0.66500   0.74514   0.72199   0.00000  Uiso   1.00
H117   H     0.65014   0.71843   0.68838   0.00000  Uiso   1.00
O91    O     0.60832   0.67676   0.68235   0.00000  Uiso   1.00
O92    O     0.57829   0.66152   0.71282   0.00000  Uiso   1.00
H118   H     0.59264   0.68732   0.74647   0.00000  Uiso   1.00
Fe19   Cu    0.57910   0.65085   0.68760   0.00000  Uiso   1.00
C307   C     0.78081   0.64652   0.21825   0.00000  Uiso   1.00
C308   C     0.79040   0.63156   0.23476   0.00000  Uiso   1.00
C309   C     0.81167   0.60995   0.23329   0.00000  Uiso   1.00
C310   C     0.82349   0.60371   0.21511   0.00000  Uiso   1.00
C311   C     0.81484   0.61864   0.19875   0.00000  Uiso   1.00
C312   C     0.79318   0.64026   0.19998   0.00000  Uiso   1.00
O93    O     0.75898   0.66738   0.22066   0.00000  Uiso   1.00
O94    O     0.77833   0.63858   0.25257   0.00000  Uiso   1.00
H119   H     0.81886   0.59822   0.24607   0.00000  Uiso   1.00
O95    O     0.84431   0.58251   0.21250   0.00000  Uiso   1.00
O96    O     0.82872   0.61081   0.18160   0.00000  Uiso   1.00
H120   H     0.78614   0.65185   0.18712   0.00000  Uiso   1.00
Fe20   Cu    0.85459   0.58189   0.18716   0.00000  Uiso   1.00
C313   C     0.86711   0.70107   0.76169   0.00000  Uiso   1.00
C314   C     0.85329   0.71204   0.77827   0.00000  Uiso   1.00
C315   C     0.85896   0.69967   0.79657   0.00000  Uiso   1.00
C316   C     0.87841   0.67616   0.79775   0.00000  Uiso   1.00
C317   C     0.89140   0.66526   0.78125   0.00000  Uiso   1.00
C318   C     0.88614   0.67749   0.76305   0.00000  Uiso   1.00
O97    O     0.86149   0.71407   0.74396   0.00000  Uiso   1.00
O98    O     0.83411   0.73523   0.77592   0.00000  Uiso   1.00
H121   H     0.84856   0.70812   0.80952   0.00000  Uiso   1.00
O99    O     0.88583   0.66253   0.81503   0.00000  Uiso   1.00
O100   O     0.90973   0.64190   0.78378   0.00000  Uiso   1.00
H122   H     0.89667   0.66887   0.75019   0.00000  Uiso   1.00
Fe21   Cu    0.91177   0.63379   0.80945   0.00000  Uiso   1.00
C319   C     0.78036   0.85309   0.28010   0.00000  Uiso   1.00
C320   C     0.78971   0.86845   0.26370   0.00000  Uiso   1.00
C321   C     0.81088   0.89021   0.26530   0.00000  Uiso   1.00
C322   C     0.82286   0.89619   0.28351   0.00000  Uiso   1.00
C323   C     0.81443   0.88087   0.29975   0.00000  Uiso   1.00
C324   C     0.79288   0.85910   0.29839   0.00000  Uiso   1.00
O101   O     0.75861   0.83212   0.27758   0.00000  Uiso   1.00
O102   O     0.77750   0.86165   0.24587   0.00000  Uiso   1.00
H123   H     0.81789   0.90226   0.25261   0.00000  Uiso   1.00
O103   O     0.84360   0.91752   0.28627   0.00000  Uiso   1.00
O104   O     0.82842   0.88847   0.31694   0.00000  Uiso   1.00
H124   H     0.78602   0.84721   0.31117   0.00000  Uiso   1.00
Fe22   Cu    0.85407   0.91772   0.31159   0.00000  Uiso   1.00
C325   C     0.64481   0.78569   0.77951   0.00000  Uiso   1.00
C326   C     0.63015   0.79610   0.76302   0.00000  Uiso   1.00
C327   C     0.60891   0.81774   0.76461   0.00000  Uiso   1.00
C328   C     0.60275   0.82903   0.78290   0.00000  Uiso   1.00
C329   C     0.61749   0.81954   0.79923   0.00000  Uiso   1.00
C330   C     0.63874   0.79758   0.79787   0.00000  Uiso   1.00
O105   O     0.66513   0.76349   0.77703   0.00000  Uiso   1.00
O106   O     0.63704   0.78439   0.74514   0.00000  Uiso   1.00
H125   H     0.59732   0.82556   0.75187   0.00000  Uiso   1.00
O107   O     0.58176   0.85004   0.78569   0.00000  Uiso   1.00
O108   O     0.60981   0.83287   0.81651   0.00000  Uiso   1.00
H126   H     0.65013   0.78987   0.81071   0.00000  Uiso   1.00
Fe23   Cu    0.58098   0.85910   0.81119   0.00000  Uiso   1.00
C331   C     0.70595   0.63407   0.26178   0.00000  Uiso   1.00
C332   C     0.71660   0.64847   0.27819   0.00000  Uiso   1.00
C333   C     0.70382   0.64321   0.29649   0.00000  Uiso   1.00
C334   C     0.68010   0.62371   0.29780   0.00000  Uiso   1.00
C335   C     0.66936   0.61031   0.28142   0.00000  Uiso   1.00
C336   C     0.68213   0.61501   0.26326   0.00000  Uiso   1.00
O109   O     0.71941   0.63924   0.24407   0.00000  Uiso   1.00
O110   O     0.73981   0.66788   0.27567   0.00000  Uiso   1.00
H127   H     0.71206   0.65403   0.30932   0.00000  Uiso   1.00
O111   O     0.66602   0.61671   0.31508   0.00000  Uiso   1.00
O112   O     0.64555   0.59220   0.28401   0.00000  Uiso   1.00
H128   H     0.67367   0.60412   0.25051   0.00000  Uiso   1.00
Fe24   Cu    0.63689   0.59086   0.30962   0.00000  Uiso   1.00
Fe25   Cu    0.49906   0.00141  -0.00004   0.00000  Uiso   1.00
Fe26   Cu    0.50154   0.50165   0.50010   0.00000  Uiso   1.00
Fe27   Cu    1.00120   0.49880  -0.00030   0.00000  Uiso   1.00
Fe28   Cu    0.99909  -0.00110   0.50003   0.00000  Uiso   1.00
C337   C     0.25089   0.22001   0.25090   0.00000  Uiso   1.00
C338   C     0.22429   0.23540   0.24994   0.00000  Uiso   1.00
C339   C     0.22443   0.26529   0.25179   0.00000  Uiso   1.00
C340   C     0.25116   0.28054   0.25084   0.00000  Uiso   1.00
C341   C     0.27776   0.26515   0.24991   0.00000  Uiso   1.00
C342   C     0.27762   0.23525   0.25182   0.00000  Uiso   1.00
H129   H     0.25078   0.19670   0.25092   0.00000  Uiso   1.00
O113   O     0.19726   0.22172   0.24730   0.00000  Uiso   1.00
O114   O     0.19752   0.27913   0.25438   0.00000  Uiso   1.00
H130   H     0.25127   0.30385   0.25081   0.00000  Uiso   1.00
O115   O     0.30478   0.27884   0.24724   0.00000  Uiso   1.00
O116   O     0.30454   0.22140   0.25444   0.00000  Uiso   1.00
C343   C     0.21926   0.25243   0.75115   0.00000  Uiso   1.00
C344   C     0.23322   0.22554   0.75193   0.00000  Uiso   1.00
C345   C     0.26389   0.22368   0.75003   0.00000  Uiso   1.00
C346   C     0.28136   0.24852   0.75122   0.00000  Uiso   1.00
C347   C     0.26742   0.27533   0.75240   0.00000  Uiso   1.00
C348   C     0.23676   0.27735   0.75043   0.00000  Uiso   1.00
H131   H     0.19534   0.25394   0.75113   0.00000  Uiso   1.00
O117   O     0.21737   0.20017   0.75447   0.00000  Uiso   1.00
O118   O     0.27625   0.19672   0.74717   0.00000  Uiso   1.00
H132   H     0.30528   0.24700   0.75127   0.00000  Uiso   1.00
O119   O     0.28333   0.30049   0.75539   0.00000  Uiso   1.00
O120   O     0.22450   0.30451   0.74796   0.00000  Uiso   1.00
C349   C     0.74766   0.71948   0.74926   0.00000  Uiso   1.00
C350   C     0.77520   0.73322   0.74804   0.00000  Uiso   1.00
C351   C     0.77718   0.76304   0.74997   0.00000  Uiso   1.00
C352   C     0.75149   0.77989   0.74929   0.00000  Uiso   1.00
C353   C     0.72387   0.76615   0.74858   0.00000  Uiso   1.00
C354   C     0.72205   0.73630   0.75048   0.00000  Uiso   1.00
H133   H     0.74619   0.69621   0.74923   0.00000  Uiso   1.00
O121   O     0.80113   0.71791   0.74504   0.00000  Uiso   1.00
O122   O     0.80508   0.77514   0.75234   0.00000  Uiso   1.00
H134   H     0.75297   0.80316   0.74928   0.00000  Uiso   1.00
O123   O     0.69773   0.78141   0.74611   0.00000  Uiso   1.00
O124   O     0.69435   0.72408   0.75334   0.00000  Uiso   1.00
C355   C     0.71841   0.74978   0.24902   0.00000  Uiso   1.00
C356   C     0.73404   0.77569   0.25049   0.00000  Uiso   1.00
C357   C     0.76476   0.77602   0.24851   0.00000  Uiso   1.00
C358   C     0.78065   0.75012   0.24895   0.00000  Uiso   1.00
C359   C     0.76498   0.72405   0.24944   0.00000  Uiso   1.00
C360   C     0.73424   0.72403   0.24753   0.00000  Uiso   1.00
H135   H     0.69444   0.74964   0.24905   0.00000  Uiso   1.00
O125   O     0.71974   0.80160   0.25374   0.00000  Uiso   1.00
O126   O     0.77868   0.80252   0.24627   0.00000  Uiso   1.00
H136   H     0.80462   0.75025   0.24894   0.00000  Uiso   1.00
O127   O     0.77912   0.69771   0.25170   0.00000  Uiso   1.00
O128   O     0.72012   0.69795   0.24436   0.00000  Uiso   1.00
loop_
_geom_bond_atom_site_label_1
_geom_bond_atom_site_label_2
_geom_bond_distance
_geom_bond_site_symmetry_2
_ccdc_geom_bond_type
Fe1    O49     1.923   .     S
Fe1    O50     1.943   .     S
Fe1    O65     1.942   .     S
Fe1    O66     1.924   .     S
Fe1    O113    1.934   .     S
Fe1    O114    1.934   .     S
Fe2    O53     1.942   .     S
Fe2    O54     1.923   .     S
Fe2    O69     1.924   .     S
Fe2    O70     1.942   .     S
Fe2    O117    1.935   .     S
Fe2    O118    1.932   .     S
Fe3    O57     1.942   .     S
Fe3    O58     1.924   .     S
Fe3    O73     1.924   .     S
Fe3    O74     1.942   .     S
Fe3    O115    1.933   .     S
Fe3    O116    1.933   .     S
Fe4    O61     1.923   .     S
Fe4    O62     1.943   .     S
Fe4    O77     1.940   .     S
Fe4    O78     1.925   .     S
Fe4    O119    1.932   .     S
Fe4    O120    1.935   .     S
Fe5    O81     1.943   .     S
Fe5    O82     1.924   .     S
Fe5    O97     1.925   .     S
Fe5    O98     1.941   .     S
Fe5    O121    1.932   .     S
Fe5    O122    1.935   .     S
Fe6    O85     1.924   .     S
Fe6    O86     1.941   .     S
Fe6    O101    1.942   .     S
Fe6    O102    1.923   .     S
Fe6    O125    1.930   .     S
Fe6    O126    1.936   .     S
Fe7    O89     1.925   .     S
Fe7    O90     1.942   .     S
Fe7    O105    1.942   .     S
Fe7    O106    1.924   .     S
Fe7    O123    1.935   .     S
Fe7    O124    1.932   .     S
Fe8    O93     1.943   .     S
Fe8    O94     1.923   .     S
Fe8    O109    1.924   .     S
Fe8    O110    1.941   .     S
Fe8    O127    1.936   .     S
Fe8    O128    1.930   .     S
C1     C2      1.424   .     A
C1     C6      1.430   .     A
C1     C11     1.428   .     A
C2     C3      1.423   1_545 A
C2     C14     1.417   .     A
C3     C2      1.423   1_565 A
C3     C4      1.423   .     A
C3     C10     1.417   .     A
C4     C5      1.429   .     A
C4     C7      1.427   .     A
C5     C6      1.432   1_565 A
C5     C18     1.420   .     A
C6     C5      1.432   1_545 A
C6     C15     1.421   .     A
C7     C8      1.401   .     A
C7     H1      1.076   .     S
C8     C9      1.407   .     A
C8     C26     1.414   .     A
C9     C10     1.391   .     A
C9     C23     1.404   .     A
C10    H2      1.078   .     S
C11    C12     1.402   .     A
C11    H3      1.076   .     S
C12    C13     1.407   .     A
C12    C30     1.415   .     A
C13    C14     1.390   .     A
C13    C27     1.403   .     A
C14    H4      1.077   .     S
C15    C16     1.397   .     A
C15    H5      1.076   .     S
C16    C17     1.408   1_545 A
C16    C22     1.409   .     A
C17    C16     1.408   1_565 A
C17    C18     1.395   .     A
C17    C19     1.409   .     A
C18    H6      1.076   .     S
C19    C20     1.396   .     A
C19    H7      1.084   .     S
C20    C21     1.372   1_565 A
C20    O1      1.381   .     S
C21    C20     1.372   1_545 A
C21    C22     1.396   .     A
C21    O2      1.381   .     S
C22    H8      1.084   .     S
C23    C24     1.390   .     A
C23    H9      1.084   .     S
C24    C25     1.372   .     A
C24    O3      1.376   .     S
C25    C26     1.402   .     A
C25    O4      1.386   .     S
C26    H10     1.083   .     S
O1     Fe25    1.812   1_565 S
O2     Fe25    1.813   .     S
O3     Fe18    1.805   .     S
O4     Fe18    1.819   .     S
C27    C28     1.389   .     A
C27    H11     1.084   .     S
C28    C29     1.372   .     A
C28    O5      1.375   .     S
C29    C30     1.403   .     A
C29    O6      1.387   .     S
C30    H12     1.083   .     S
O5     Fe15    1.804   .     S
O6     Fe15    1.821   .     S
C31    C32     1.422   .     A
C31    C36     1.429   .     A
C31    C41     1.427   .     A
C32    C33     1.422   .     A
C32    C44     1.417   .     A
C33    C34     1.424   .     A
C33    C40     1.416   .     A
C34    C35     1.430   .     A
C34    C37     1.428   .     A
C35    C36     1.432   .     A
C35    C48     1.421   .     A
C36    C45     1.420   .     A
C37    C38     1.402   .     A
C37    H13     1.076   .     S
C38    C39     1.407   .     A
C38    C56     1.414   .     A
C39    C40     1.390   .     A
C39    C53     1.403   .     A
C40    H14     1.078   .     S
C41    C42     1.401   .     A
C41    H15     1.076   .     S
C42    C43     1.408   .     A
C42    C60     1.414   .     A
C43    C44     1.391   .     A
C43    C57     1.404   .     A
C44    H16     1.078   .     S
C45    C46     1.395   .     A
C45    H17     1.076   .     S
C46    C47     1.408   .     A
C46    C52     1.409   .     A
C47    C48     1.397   .     A
C47    C49     1.410   .     A
C48    H18     1.076   .     S
C49    C50     1.397   .     A
C49    H19     1.083   .     S
C50    C51     1.372   .     A
C50    O7      1.382   .     S
C51    C52     1.395   .     A
C51    O8      1.381   .     S
C52    H20     1.084   .     S
C53    C54     1.390   .     A
C53    H21     1.084   .     S
C54    C55     1.372   .     A
C54    O9      1.376   .     S
C55    C56     1.402   .     A
C55    O10     1.387   .     S
C56    H22     1.083   .     S
O7     Fe26    1.813   .     S
O8     Fe26    1.812   .     S
O9     Fe19    1.805   .     S
O10    Fe19    1.820   .     S
C57    C58     1.390   .     A
C57    H23     1.084   .     S
C58    C59     1.372   .     A
C58    O11     1.376   .     S
C59    C60     1.401   .     A
C59    O12     1.386   .     S
C60    H24     1.083   .     S
O11    Fe16    1.805   .     S
O12    Fe16    1.819   .     S
C61    C62     1.424   .     A
C61    C66     1.429   .     A
C61    C71     1.427   .     A
C62    C63     1.425   1_655 A
C62    C74     1.418   .     A
C63    C62     1.425   1_455 A
C63    C64     1.424   .     A
C63    C70     1.418   .     A
C64    C65     1.429   .     A
C64    C67     1.428   .     A
C65    C66     1.431   1_455 A
C65    C78     1.421   .     A
C66    C65     1.431   1_655 A
C66    C75     1.420   .     A
C67    C68     1.401   .     A
C67    H25     1.076   .     S
C68    C69     1.407   .     A
C68    C86     1.415   .     A
C69    C70     1.391   .     A
C69    C83     1.404   .     A
C70    H26     1.077   .     S
C71    C72     1.400   .     A
C71    H27     1.076   .     S
C72    C73     1.407   .     A
C72    C90     1.415   .     A
C73    C74     1.391   .     A
C73    C87     1.404   .     A
C74    H28     1.077   .     S
C75    C76     1.395   .     A
C75    H29     1.076   .     S
C76    C77     1.408   1_655 A
C76    C82     1.409   .     A
C77    C76     1.408   1_455 A
C77    C78     1.397   .     A
C77    C79     1.409   .     A
C78    H30     1.076   .     S
C79    C80     1.396   .     A
C79    H31     1.083   .     S
C80    C81     1.372   1_455 A
C80    O13     1.381   .     S
C81    C80     1.372   1_655 A
C81    C82     1.395   .     A
C81    O14     1.381   .     S
C82    H32     1.084   .     S
C83    C84     1.390   .     A
C83    H33     1.084   .     S
C84    C85     1.372   .     A
C84    O15     1.376   .     S
C85    C86     1.402   .     A
C85    O16     1.387   .     S
C86    H34     1.083   .     S
O13    Fe27    1.813   1_455 S
O14    Fe27    1.812   .     S
O15    Fe13    1.805   .     S
O16    Fe13    1.820   .     S
C87    C88     1.390   .     A
C87    H35     1.084   .     S
C88    C89     1.372   .     A
C88    O17     1.375   .     S
C89    C90     1.402   .     A
C89    O18     1.387   .     S
C90    H36     1.083   .     S
O17    Fe20    1.804   .     S
O18    Fe20    1.820   .     S
C91    C92     1.424   .     A
C91    C96     1.430   .     A
C91    C101    1.428   .     A
C92    C93     1.424   1_665 A
C92    C104    1.417   .     A
C93    C92     1.424   1_445 A
C93    C94     1.424   .     A
C93    C100    1.418   .     A
C94    C95     1.429   .     A
C94    C97     1.427   .     A
C95    C96     1.432   1_445 A
C95    C108    1.420   .     A
C96    C95     1.432   1_665 A
C96    C105    1.421   .     A
C97    C98     1.400   .     A
C97    H37     1.075   .     S
C98    C99     1.407   .     A
C98    C116    1.414   .     A
C99    C100    1.391   .     A
C99    C113    1.404   .     A
C100   H38     1.078   .     S
C101   C102    1.401   .     A
C101   H39     1.075   .     S
C102   C103    1.407   .     A
C102   C120    1.415   .     A
C103   C104    1.391   .     A
C103   C117    1.404   .     A
C104   H40     1.078   .     S
C105   C106    1.397   .     A
C105   H41     1.076   .     S
C106   C107    1.408   1_665 A
C106   C112    1.410   .     A
C107   C106    1.408   1_445 A
C107   C108    1.395   .     A
C107   C109    1.409   .     A
C108   H42     1.076   .     S
C109   C110    1.395   .     A
C109   H43     1.084   .     S
C110   C111    1.372   1_445 A
C110   O19     1.381   .     S
C111   C110    1.372   1_665 A
C111   C112    1.396   .     A
C111   O20     1.381   .     S
C112   H44     1.084   .     S
C113   C114    1.391   .     A
C113   H45     1.084   .     S
C114   C115    1.372   .     A
C114   O21     1.376   .     S
C115   C116    1.401   .     A
C115   O22     1.386   .     S
C116   H46     1.083   .     S
O19    Fe28    1.812   1_455 S
O20    Fe28    1.813   1_565 S
O21    Fe14    1.806   .     S
O22    Fe14    1.819   .     S
C117   C118    1.390   .     A
C117   H47     1.084   .     S
C118   C119    1.372   .     A
C118   O23     1.376   .     S
C119   C120    1.402   .     A
C119   O24     1.387   .     S
C120   H48     1.083   .     S
O23    Fe17    1.805   .     S
O24    Fe17    1.820   .     S
C121   C122    1.424   .     A
C121   C126    1.430   .     A
C121   C131    1.428   .     A
C122   C123    1.423   .     A
C122   C134    1.416   .     A
C123   C124    1.423   .     A
C123   C130    1.417   .     A
C124   C125    1.429   .     A
C124   C127    1.427   .     A
C125   C126    1.432   .     A
C125   C138    1.420   .     A
C126   C135    1.421   .     A
C127   C128    1.401   .     A
C127   H49     1.076   .     S
C128   C129    1.407   .     A
C128   C146    1.414   .     A
C129   C130    1.390   .     A
C129   C143    1.404   .     A
C130   H50     1.078   .     S
C131   C132    1.402   .     A
C131   H51     1.076   .     S
C132   C133    1.407   .     A
C132   C150    1.415   .     A
C133   C134    1.390   .     A
C133   C147    1.403   .     A
C134   H52     1.077   .     S
C135   C136    1.397   .     A
C135   H53     1.076   .     S
C136   C137    1.408   .     A
C136   C142    1.409   .     A
C137   C138    1.396   .     A
C137   C139    1.409   .     A
C138   H54     1.076   .     S
C139   C140    1.396   .     A
C139   H55     1.084   .     S
C140   C141    1.372   .     A
C140   O25     1.381   .     S
C141   C142    1.396   .     A
C141   O26     1.381   .     S
C142   H56     1.083   .     S
C143   C144    1.390   .     A
C143   H57     1.084   .     S
C144   C145    1.372   .     A
C144   O27     1.376   .     S
C145   C146    1.402   .     A
C145   O28     1.386   .     S
C146   H58     1.083   .     S
O25    Fe26    1.812   .     S
O26    Fe26    1.813   .     S
O27    Fe24    1.805   .     S
O28    Fe24    1.819   .     S
C147   C148    1.389   .     A
C147   H59     1.084   .     S
C148   C149    1.372   .     A
C148   O29     1.375   .     S
C149   C150    1.403   .     A
C149   O30     1.387   .     S
C150   H60     1.083   .     S
O29    Fe11    1.804   .     S
O30    Fe11    1.821   .     S
C151   C152    1.424   .     A
C151   C156    1.430   .     A
C151   C161    1.427   .     A
C152   C153    1.424   1_655 A
C152   C164    1.417   .     A
C153   C152    1.424   1_455 A
C153   C154    1.423   .     A
C153   C160    1.417   .     A
C154   C155    1.429   .     A
C154   C157    1.427   .     A
C155   C156    1.431   1_455 A
C155   C168    1.420   .     A
C156   C155    1.431   1_655 A
C156   C165    1.421   .     A
C157   C158    1.400   .     A
C157   H61     1.076   .     S
C158   C159    1.407   .     A
C158   C176    1.414   .     A
C159   C160    1.391   .     A
C159   C173    1.404   .     A
C160   H62     1.078   .     S
C161   C162    1.401   .     A
C161   H63     1.076   .     S
C162   C163    1.407   .     A
C162   C180    1.414   .     A
C163   C164    1.391   .     A
C163   C177    1.404   .     A
C164   H64     1.078   .     S
C165   C166    1.397   .     A
C165   H65     1.076   .     S
C166   C167    1.408   1_655 A
C166   C172    1.409   .     A
C167   C166    1.408   1_455 A
C167   C168    1.395   .     A
C167   C169    1.409   .     A
C168   H66     1.076   .     S
C169   C170    1.395   .     A
C169   H67     1.084   .     S
C170   C171    1.372   1_455 A
C170   O31     1.381   .     S
C171   C170    1.372   1_655 A
C171   C172    1.396   .     A
C171   O32     1.381   .     S
C172   H68     1.084   .     S
C173   C174    1.390   .     A
C173   H69     1.084   .     S
C174   C175    1.372   .     A
C174   O33     1.375   .     S
C175   C176    1.401   .     A
C175   O34     1.387   .     S
C176   H70     1.083   .     S
O31    Fe27    1.812   1_456 S
O32    Fe27    1.813   1_556 S
O33    Fe12    1.805   .     S
O34    Fe12    1.819   .     S
C177   C178    1.391   .     A
C177   H71     1.084   .     S
C178   C179    1.372   .     A
C178   O35     1.377   .     S
C179   C180    1.401   .     A
C179   O36     1.386   .     S
C180   H72     1.083   .     S
O35    Fe21    1.806   .     S
O36    Fe21    1.819   .     S
C181   C182    1.424   .     A
C181   C186    1.428   .     A
C181   C191    1.427   .     A
C182   C183    1.425   1_665 A
C182   C194    1.418   .     A
C183   C182    1.425   1_445 A
C183   C184    1.425   .     A
C183   C190    1.417   .     A
C184   C185    1.429   .     A
C184   C187    1.428   .     A
C185   C186    1.431   1_445 A
C185   C198    1.421   .     A
C186   C185    1.431   1_665 A
C186   C195    1.420   .     A
C187   C188    1.401   .     A
C187   H73     1.076   .     S
C188   C189    1.407   .     A
C188   C206    1.415   .     A
C189   C190    1.391   .     A
C189   C203    1.403   .     A
C190   H74     1.077   .     S
C191   C192    1.400   .     A
C191   H75     1.076   .     S
C192   C193    1.407   .     A
C192   C210    1.414   .     A
C193   C194    1.391   .     A
C193   C207    1.404   .     A
C194   H76     1.077   .     S
C195   C196    1.395   .     A
C195   H77     1.076   .     S
C196   C197    1.408   1_665 A
C196   C202    1.409   .     A
C197   C196    1.408   1_445 A
C197   C198    1.397   .     A
C197   C199    1.409   .     A
C198   H78     1.076   .     S
C199   C200    1.397   .     A
C199   H79     1.084   .     S
C200   C201    1.372   1_445 A
C200   O37     1.381   .     S
C201   C200    1.372   1_665 A
C201   C202    1.395   .     A
C201   O38     1.381   .     S
C202   H80     1.084   .     S
C203   C204    1.389   .     A
C203   H81     1.084   .     S
C204   C205    1.372   .     A
C204   O39     1.375   .     S
C205   C206    1.403   .     A
C205   O40     1.387   .     S
C206   H82     1.083   .     S
O37    Fe28    1.813   1_455 S
O38    Fe28    1.812   1_565 S
O39    Fe9     1.804   .     S
O40    Fe9     1.821   .     S
C207   C208    1.390   .     A
C207   H83     1.084   .     S
C208   C209    1.372   .     A
C208   O41     1.376   .     S
C209   C210    1.401   .     A
C209   O42     1.387   .     S
C210   H84     1.083   .     S
O41    Fe22    1.805   .     S
O42    Fe22    1.819   .     S
C211   C212    1.424   .     A
C211   C216    1.429   .     A
C211   C221    1.428   .     A
C212   C213    1.426   1_545 A
C212   C224    1.418   .     A
C213   C212    1.426   1_565 A
C213   C214    1.425   .     A
C213   C220    1.418   .     A
C214   C215    1.430   .     A
C214   C217    1.428   .     A
C215   C216    1.431   1_565 A
C215   C228    1.422   .     A
C216   C215    1.431   1_545 A
C216   C225    1.420   .     A
C217   C218    1.401   .     A
C217   H85     1.076   .     S
C218   C219    1.407   .     A
C218   C236    1.415   .     A
C219   C220    1.390   .     A
C219   C233    1.404   .     A
C220   H86     1.076   .     S
C221   C222    1.400   .     A
C221   H87     1.076   .     S
C222   C223    1.407   .     A
C222   C240    1.415   .     A
C223   C224    1.391   .     A
C223   C237    1.404   .     A
C224   H88     1.076   .     S
C225   C226    1.395   .     A
C225   H89     1.076   .     S
C226   C227    1.408   1_545 A
C226   C232    1.409   .     A
C227   C226    1.408   1_565 A
C227   C228    1.397   .     A
C227   C229    1.409   .     A
C228   H90     1.076   .     S
C229   C230    1.397   .     A
C229   H91     1.084   .     S
C230   C231    1.372   1_565 A
C230   O43     1.381   .     S
C231   C230    1.372   1_545 A
C231   C232    1.395   .     A
C231   O44     1.381   .     S
C232   H92     1.084   .     S
C233   C234    1.389   .     A
C233   H93     1.084   .     S
C234   C235    1.372   .     A
C234   O45     1.375   .     S
C235   C236    1.403   .     A
C235   O46     1.387   .     S
C236   H94     1.083   .     S
O43    Fe25    1.813   1_566 S
O44    Fe25    1.812   1_556 S
O45    Fe23    1.804   .     S
O46    Fe23    1.821   .     S
C237   C238    1.389   .     A
C237   H95     1.084   .     S
C238   C239    1.372   .     A
C238   O47     1.375   .     S
C239   C240    1.402   .     A
C239   O48     1.387   .     S
C240   H96     1.083   .     S
O47    Fe10    1.804   .     S
O48    Fe10    1.820   .     S
C241   C242    1.398   .     A
C241   C246    1.395   .     A
C241   O49     1.382   .     S
C242   C243    1.408   .     A
C242   O50     1.393   .     S
C243   C244    1.405   .     A
C243   H97     1.082   .     S
C244   C245    1.377   .     A
C244   O51     1.387   .     S
C245   C246    1.393   .     A
C245   O52     1.375   .     S
C246   H98     1.083   .     S
O51    Fe9     1.821   .     S
O52    Fe9     1.805   .     S
C247   C248    1.398   .     A
C247   C252    1.407   .     A
C247   O53     1.393   .     S
C248   C249    1.394   .     A
C248   O54     1.382   .     S
C249   C250    1.392   .     A
C249   H99     1.083   .     S
C250   C251    1.377   .     A
C250   O55     1.375   .     S
C251   C252    1.405   .     A
C251   O56     1.387   .     S
C252   H100    1.082   .     S
O55    Fe10    1.805   .     S
O56    Fe10    1.821   .     S
C253   C254    1.398   .     A
C253   C258    1.407   .     A
C253   O57     1.392   .     S
C254   C255    1.395   .     A
C254   O58     1.383   .     S
C255   C256    1.393   .     A
C255   H101    1.083   .     S
C256   C257    1.377   .     A
C256   O59     1.375   .     S
C257   C258    1.405   .     A
C257   O60     1.387   .     S
C258   H102    1.082   .     S
O59    Fe11    1.805   .     S
O60    Fe11    1.820   .     S
C259   C260    1.398   .     A
C259   C264    1.394   .     A
C259   O61     1.382   .     S
C260   C261    1.407   .     A
C260   O62     1.393   .     S
C261   C262    1.405   .     A
C261   H103    1.082   .     S
C262   C263    1.377   .     A
C262   O63     1.387   .     S
C263   C264    1.392   .     A
C263   O64     1.375   .     S
C264   H104    1.083   .     S
O63    Fe12    1.821   .     S
O64    Fe12    1.804   .     S
C265   C266    1.398   .     A
C265   C270    1.407   .     A
C265   O65     1.393   .     S
C266   C267    1.395   .     A
C266   O66     1.383   .     S
C267   C268    1.393   .     A
C267   H105    1.083   .     S
C268   C269    1.377   .     A
C268   O67     1.375   .     S
C269   C270    1.405   .     A
C269   O68     1.387   .     S
C270   H106    1.082   .     S
O67    Fe13    1.806   .     S
O68    Fe13    1.821   .     S
C271   C272    1.398   .     A
C271   C276    1.395   .     A
C271   O69     1.382   .     S
C272   C273    1.407   .     A
C272   O70     1.393   .     S
C273   C274    1.405   .     A
C273   H107    1.082   .     S
C274   C275    1.377   .     A
C274   O71     1.386   .     S
C275   C276    1.393   .     A
C275   O72     1.376   .     S
C276   H108    1.083   .     S
O71    Fe14    1.820   .     S
O72    Fe14    1.805   .     S
C277   C278    1.398   .     A
C277   C282    1.395   .     A
C277   O73     1.383   .     S
C278   C279    1.407   .     A
C278   O74     1.392   .     S
C279   C280    1.405   .     A
C279   H109    1.082   .     S
C280   C281    1.377   .     A
C280   O75     1.387   .     S
C281   C282    1.393   .     A
C281   O76     1.375   .     S
C282   H110    1.083   .     S
O75    Fe15    1.820   .     S
O76    Fe15    1.805   .     S
C283   C284    1.398   .     A
C283   C288    1.406   .     A
C283   O77     1.392   .     S
C284   C285    1.396   .     A
C284   O78     1.383   .     S
C285   C286    1.393   .     A
C285   H111    1.083   .     S
C286   C287    1.377   .     A
C286   O79     1.376   .     S
C287   C288    1.404   .     A
C287   O80     1.386   .     S
C288   H112    1.082   .     S
O79    Fe16    1.806   .     S
O80    Fe16    1.819   .     S
C289   C290    1.398   .     A
C289   C294    1.408   .     A
C289   O81     1.393   .     S
C290   C291    1.395   .     A
C290   O82     1.382   .     S
C291   C292    1.393   .     A
C291   H113    1.083   .     S
C292   C293    1.377   .     A
C292   O83     1.376   .     S
C293   C294    1.406   .     A
C293   O84     1.387   .     S
C294   H114    1.082   .     S
O83    Fe17    1.805   .     S
O84    Fe17    1.821   .     S
C295   C296    1.398   .     A
C295   C300    1.395   .     A
C295   O85     1.383   .     S
C296   C297    1.406   .     A
C296   O86     1.392   .     S
C297   C298    1.404   .     A
C297   H115    1.082   .     S
C298   C299    1.377   .     A
C298   O87     1.386   .     S
C299   C300    1.393   .     A
C299   O88     1.376   .     S
C300   H116    1.083   .     S
O87    Fe18    1.820   .     S
O88    Fe18    1.806   .     S
C301   C302    1.398   .     A
C301   C306    1.395   .     A
C301   O89     1.383   .     S
C302   C303    1.407   .     A
C302   O90     1.392   .     S
C303   C304    1.405   .     A
C303   H117    1.082   .     S
C304   C305    1.377   .     A
C304   O91     1.386   .     S
C305   C306    1.393   .     A
C305   O92     1.376   .     S
C306   H118    1.083   .     S
O91    Fe19    1.820   .     S
O92    Fe19    1.806   .     S
C307   C308    1.398   .     A
C307   C312    1.408   .     A
C307   O93     1.393   .     S
C308   C309    1.394   .     A
C308   O94     1.382   .     S
C309   C310    1.392   .     A
C309   H119    1.083   .     S
C310   C311    1.377   .     A
C310   O95     1.375   .     S
C311   C312    1.406   .     A
C311   O96     1.387   .     S
C312   H120    1.082   .     S
O95    Fe20    1.804   .     S
O96    Fe20    1.821   .     S
C313   C314    1.398   .     A
C313   C318    1.396   .     A
C313   O97     1.383   .     S
C314   C315    1.406   .     A
C314   O98     1.392   .     S
C315   C316    1.404   .     A
C315   H121    1.082   .     S
C316   C317    1.377   .     A
C316   O99     1.386   .     S
C317   C318    1.394   .     A
C317   O100    1.376   .     S
C318   H122    1.083   .     S
O99    Fe21    1.819   .     S
O100   Fe21    1.807   .     S
C319   C320    1.398   .     A
C319   C324    1.407   .     A
C319   O101    1.393   .     S
C320   C321    1.395   .     A
C320   O102    1.382   .     S
C321   C322    1.392   .     A
C321   H123    1.083   .     S
C322   C323    1.377   .     A
C322   O103    1.375   .     S
C323   C324    1.405   .     A
C323   O104    1.386   .     S
C324   H124    1.082   .     S
O103   Fe22    1.805   .     S
O104   Fe22    1.821   .     S
C325   C326    1.398   .     A
C325   C330    1.407   .     A
C325   O105    1.393   .     S
C326   C327    1.395   .     A
C326   O106    1.383   .     S
C327   C328    1.393   .     A
C327   H125    1.083   .     S
C328   C329    1.377   .     A
C328   O107    1.375   .     S
C329   C330    1.405   .     A
C329   O108    1.387   .     S
C330   H126    1.082   .     S
O107   Fe23    1.806   .     S
O108   Fe23    1.820   .     S
C331   C332    1.398   .     A
C331   C336    1.395   .     A
C331   O109    1.383   .     S
C332   C333    1.406   .     A
C332   O110    1.392   .     S
C333   C334    1.404   .     A
C333   H127    1.082   .     S
C334   C335    1.377   .     A
C334   O111    1.386   .     S
C335   C336    1.393   .     A
C335   O112    1.376   .     S
C336   H128    1.083   .     S
O111   Fe24    1.819   .     S
O112   Fe24    1.806   .     S
Fe25   O1      1.812   1_545 S
Fe25   O44     1.812   1_554 S
Fe25   O43     1.813   1_544 S
Fe27   O13     1.813   1_655 S
Fe27   O31     1.812   1_654 S
Fe27   O32     1.813   1_554 S
Fe28   O19     1.812   1_655 S
Fe28   O20     1.813   1_545 S
Fe28   O37     1.813   1_655 S
Fe28   O38     1.812   1_545 S
C337   C338    1.400   .     A
C337   C342    1.400   .     A
C337   H129    1.082   .     S
C338   C339    1.394   .     A
C338   O113    1.387   .     S
C339   C340    1.400   .     A
C339   O114    1.387   .     S
C340   C341    1.400   .     A
C340   H130    1.082   .     S
C341   C342    1.394   .     A
C341   O115    1.387   .     S
C342   O116    1.387   .     S
C343   C344    1.401   .     A
C343   C348    1.401   .     A
C343   H131    1.082   .     S
C344   C345    1.394   .     A
C344   O117    1.388   .     S
C345   C346    1.399   .     A
C345   O118    1.386   .     S
C346   C347    1.399   .     A
C346   H132    1.083   .     S
C347   C348    1.394   .     A
C347   O119    1.386   .     S
C348   O120    1.388   .     S
C349   C350    1.399   .     A
C349   C354    1.399   .     A
C349   H133    1.082   .     S
C350   C351    1.394   .     A
C350   O121    1.387   .     S
C351   C352    1.401   .     A
C351   O122    1.388   .     S
C352   C353    1.401   .     A
C352   H134    1.082   .     S
C353   C354    1.394   .     A
C353   O123    1.388   .     S
C354   O124    1.387   .     S
C355   C356    1.398   .     A
C355   C360    1.398   .     A
C355   H135    1.083   .     S
C356   C357    1.394   .     A
C356   O125    1.386   .     S
C357   C358    1.402   .     A
C357   O126    1.389   .     S
C358   C359    1.402   .     A
C358   H136    1.082   .     S
C359   C360    1.394   .     A
C359   O127    1.389   .     S
C360   O128    1.386   .     S
