data_etj-spacer-TP_O-Feoct
_audit_creation_date              2021-11-06
_audit_creation_method            'Materials Studio'
_symmetry_space_group_name_H-M    'P1'
_symmetry_Int_Tables_number       1
_symmetry_cell_setting            triclinic
loop_
_symmetry_equiv_pos_as_xyz
  x,y,z
_cell_length_a                    40.0775
_cell_length_b                    40.0603
_cell_length_c                    53.3540
_cell_angle_alpha                 89.9879
_cell_angle_beta                  90.0254
_cell_angle_gamma                 89.9227
loop_
_atom_site_label
_atom_site_type_symbol
_atom_site_fract_x
_atom_site_fract_y
_atom_site_fract_z
_atom_site_U_iso_or_equiv
_atom_site_adp_type
_atom_site_occupancy
Fe1    Fe    0.15559   0.24312   0.24602   0.00000  Uiso   1.00
Fe2    Fe    0.25777   0.15554   0.74645   0.00000  Uiso   1.00
Fe3    Fe    0.34467   0.25681   0.24592   0.00000  Uiso   1.00
Fe4    Fe    0.24226   0.34462   0.74635   0.00000  Uiso   1.00
Fe5    Fe    0.84440   0.75840   0.75369   0.00000  Uiso   1.00
Fe6    Fe    0.74348   0.84445   0.25419   0.00000  Uiso   1.00
Fe7    Fe    0.65550   0.74189   0.75357   0.00000  Uiso   1.00
Fe8    Fe    0.75638   0.65517   0.25393   0.00000  Uiso   1.00
C1     C     0.49716   0.05036   0.11263   0.00000  Uiso   1.00
C2     C     0.51346   0.04179   0.13559   0.00000  Uiso   1.00
C3     C     0.53592   1.01433   0.13656   0.00000  Uiso   1.00
C4     C     0.54542   0.99744   0.11409   0.00000  Uiso   1.00
C5     C     0.52963   1.00612   0.09101   0.00000  Uiso   1.00
C6     C     0.50510   0.03231   0.09034   0.00000  Uiso   1.00
C7     C     0.57043   0.97204   0.11574   0.00000  Uiso   1.00
C8     C     0.58378   0.96293   0.13890   0.00000  Uiso   1.00
C9     C     0.57275   0.97767   0.16032   0.00000  Uiso   1.00
C10    C     0.54904   1.00276   0.15971   0.00000  Uiso   1.00
C11    C     0.47346   0.07709   0.11296   0.00000  Uiso   1.00
C12    C     0.46723   0.09480   0.13498   0.00000  Uiso   1.00
C13    C     0.48419   0.08735   0.15636   0.00000  Uiso   1.00
C14    C     0.50730   0.06173   0.15708   0.00000  Uiso   1.00
C15    C     0.48948   0.03974   0.06703   0.00000  Uiso   1.00
C16    C     0.49772   0.02202   0.04553   0.00000  Uiso   1.00
C17    C     0.52086   0.99714   0.04620   0.00000  Uiso   1.00
C18    C     0.53691   0.98877   0.06839   0.00000  Uiso   1.00
H1     H     0.58031   0.95904   0.09974   0.00000  Uiso   1.00
O1     O     0.60805   0.93852   0.14186   0.00000  Uiso   1.00
O2     O     0.58654   0.96649   0.18242   0.00000  Uiso   1.00
H2     H     0.54107   0.01200   0.17768   0.00000  Uiso   1.00
H3     H     0.45951   0.08497   0.09678   0.00000  Uiso   1.00
O3     O     0.44456   0.12094   0.13667   0.00000  Uiso   1.00
O4     O     0.47723   0.10661   0.17705   0.00000  Uiso   1.00
H4     H     0.52043   0.05880   0.17454   0.00000  Uiso   1.00
H5     H     0.47088   0.05886   0.06471   0.00000  Uiso   1.00
O5     O     0.48310   0.02820   0.02253   0.00000  Uiso   1.00
O6     O     0.52698   0.98088   0.02382   0.00000  Uiso   1.00
H6     H     0.55438   0.96843   0.06720   0.00000  Uiso   1.00
C19    C     0.44888   0.49596   0.61285   0.00000  Uiso   1.00
C20    C     0.45757   0.51221   0.63580   0.00000  Uiso   1.00
C21    C     0.48502   0.53460   0.63669   0.00000  Uiso   1.00
C22    C     0.50171   0.54415   0.61416   0.00000  Uiso   1.00
C23    C     0.49290   0.52843   0.59110   0.00000  Uiso   1.00
C24    C     0.46679   0.50389   0.59051   0.00000  Uiso   1.00
C25    C     0.52707   0.56913   0.61573   0.00000  Uiso   1.00
C26    C     0.53636   0.58240   0.63885   0.00000  Uiso   1.00
C27    C     0.52186   0.57128   0.66034   0.00000  Uiso   1.00
C28    C     0.49677   0.54763   0.65981   0.00000  Uiso   1.00
C29    C     0.42213   0.47236   0.61324   0.00000  Uiso   1.00
C30    C     0.40448   0.46622   0.63530   0.00000  Uiso   1.00
C31    C     0.41203   0.48315   0.65666   0.00000  Uiso   1.00
C32    C     0.43774   0.50609   0.65733   0.00000  Uiso   1.00
C33    C     0.45928   0.48827   0.56722   0.00000  Uiso   1.00
C34    C     0.47685   0.49654   0.54565   0.00000  Uiso   1.00
C35    C     0.50161   0.51974   0.54625   0.00000  Uiso   1.00
C36    C     0.51004   0.53579   0.56842   0.00000  Uiso   1.00
H7     H     0.53995   0.57903   0.59970   0.00000  Uiso   1.00
O7     O     0.56074   0.60664   0.64171   0.00000  Uiso   1.00
O8     O     0.53331   0.58493   0.68240   0.00000  Uiso   1.00
H8     H     0.48768   0.53959   0.67781   0.00000  Uiso   1.00
H9     H     0.41415   0.45847   0.59707   0.00000  Uiso   1.00
O9     O     0.37827   0.44372   0.63702   0.00000  Uiso   1.00
O10    O     0.39274   0.47636   0.67736   0.00000  Uiso   1.00
H10    H     0.44080   0.51918   0.67480   0.00000  Uiso   1.00
H11    H     0.44024   0.46962   0.56496   0.00000  Uiso   1.00
O11    O     0.47064   0.48191   0.52266   0.00000  Uiso   1.00
O12    O     0.51772   0.52593   0.52384   0.00000  Uiso   1.00
H12    H     0.53026   0.55332   0.56714   0.00000  Uiso   1.00
C37    C     0.95450   0.50232   0.11396   0.00000  Uiso   1.00
C38    C     0.96408   0.48553   0.13647   0.00000  Uiso   1.00
C39    C    -0.01334   0.45817   0.13557   0.00000  Uiso   1.00
C40    C     0.00294   0.44956   0.11263   0.00000  Uiso   1.00
C41    C    -0.00509   0.46750   0.09029   0.00000  Uiso   1.00
C42    C     0.97027   0.49359   0.09089   0.00000  Uiso   1.00
C43    C     0.02670   0.42288   0.11301   0.00000  Uiso   1.00
C44    C     0.03298   0.40523   0.13506   0.00000  Uiso   1.00
C45    C     0.01610   0.41276   0.15644   0.00000  Uiso   1.00
C46    C    -0.00702   0.43837   0.15712   0.00000  Uiso   1.00
C47    C     0.92944   0.52768   0.11556   0.00000  Uiso   1.00
C48    C     0.91608   0.53682   0.13869   0.00000  Uiso   1.00
C49    C     0.92714   0.52215   0.16014   0.00000  Uiso   1.00
C50    C     0.95090   0.49711   0.15958   0.00000  Uiso   1.00
C51    C     0.96284   0.51076   0.06821   0.00000  Uiso   1.00
C52    C     0.97894   0.50240   0.04604   0.00000  Uiso   1.00
C53    C     0.00222   0.47765   0.04544   0.00000  Uiso   1.00
C54    C     0.01054   0.46003   0.06700   0.00000  Uiso   1.00
H13    H     0.04065   0.41498   0.09684   0.00000  Uiso   1.00
O13    O     0.05564   0.37909   0.13678   0.00000  Uiso   1.00
O14    O     0.02313   0.39358   0.17718   0.00000  Uiso   1.00
H14    H     0.97998   0.44139   0.17462   0.00000  Uiso   1.00
H15    H     0.91957   0.54067   0.09954   0.00000  Uiso   1.00
O15    O     0.89178   0.56121   0.14162   0.00000  Uiso   1.00
O16    O     0.91337   0.53336   0.18222   0.00000  Uiso   1.00
H16    H     0.95886   0.48794   0.17759   0.00000  Uiso   1.00
H17    H     0.94521   0.53095   0.06695   0.00000  Uiso   1.00
O17    O     0.97268   0.51851   0.02362   0.00000  Uiso   1.00
O18    O     0.01685   0.47146   0.02246   0.00000  Uiso   1.00
H18    H     0.02920   0.44097   0.06472   0.00000  Uiso   1.00
C55    C     0.99806   0.95614   0.61425   0.00000  Uiso   1.00
C56    C     1.01480   0.96565   0.63679   0.00000  Uiso   1.00
C57    C     0.04233  -0.01205   0.63588   0.00000  Uiso   1.00
C58    C     0.05105   0.00417   0.61294   0.00000  Uiso   1.00
C59    C     0.03310  -0.00372   0.59059   0.00000  Uiso   1.00
C60    C     1.00694   0.97179   0.59118   0.00000  Uiso   1.00
C61    C     0.07786   0.02770   0.61332   0.00000  Uiso   1.00
C62    C     0.09553   0.03381   0.63538   0.00000  Uiso   1.00
C63    C     0.08796   0.01691   0.65674   0.00000  Uiso   1.00
C64    C     0.06219  -0.00597   0.65742   0.00000  Uiso   1.00
C65    C     0.97259   0.93128   0.61584   0.00000  Uiso   1.00
C66    C     0.96324   0.91809   0.63897   0.00000  Uiso   1.00
C67    C     0.97779   0.92917   0.66046   0.00000  Uiso   1.00
C68    C     1.00301   0.95270   0.65991   0.00000  Uiso   1.00
C69    C     0.98983   0.96440   0.56848   0.00000  Uiso   1.00
C70    C     0.99830   0.98040   0.54630   0.00000  Uiso   1.00
C71    C     0.02307   0.00360   0.54572   0.00000  Uiso   1.00
C72    C     0.04062   0.01189   0.56729   0.00000  Uiso   1.00
H19    H     0.08587   0.04156   0.59714   0.00000  Uiso   1.00
O19    O     0.12178   0.05627   0.63710   0.00000  Uiso   1.00
O20    O     0.10728   0.02368   0.67745   0.00000  Uiso   1.00
H20    H     0.05910   0.98096   0.67490   0.00000  Uiso   1.00
H21    H     0.95964   0.92143   0.59981   0.00000  Uiso   1.00
O21    O     0.93874   0.89397   0.64185   0.00000  Uiso   1.00
O22    O     0.96626   0.91563   0.68253   0.00000  Uiso   1.00
H22    H     0.01215   0.96070   0.67791   0.00000  Uiso   1.00
H23    H     0.96961   0.94687   0.56719   0.00000  Uiso   1.00
O23    O     0.98225   0.97416   0.52387   0.00000  Uiso   1.00
O24    O     0.02933   0.01818   0.52271   0.00000  Uiso   1.00
H24    H     0.05967   0.03053   0.56504   0.00000  Uiso   1.00
C73    C     0.49721   0.45489   0.38590   0.00000  Uiso   1.00
C74    C     0.51390   0.46452   0.36338   0.00000  Uiso   1.00
C75    C     0.54124   0.48705   0.36430   0.00000  Uiso   1.00
C76    C     0.54993   0.50321   0.38727   0.00000  Uiso   1.00
C77    C     0.53203   0.49518   0.40960   0.00000  Uiso   1.00
C78    C     0.50595   0.47061   0.40897   0.00000  Uiso   1.00
C79    C     0.57664   0.52687   0.38693   0.00000  Uiso   1.00
C80    C     0.59419   0.53321   0.36486   0.00000  Uiso   1.00
C81    C     0.58656   0.51645   0.34344   0.00000  Uiso   1.00
C82    C     0.56095   0.49340   0.34274   0.00000  Uiso   1.00
C83    C     0.47194   0.42981   0.38429   0.00000  Uiso   1.00
C84    C     0.46275   0.41652   0.36114   0.00000  Uiso   1.00
C85    C     0.47730   0.42767   0.33969   0.00000  Uiso   1.00
C86    C     0.50227   0.45143   0.34026   0.00000  Uiso   1.00
C87    C     0.48876   0.46323   0.43164   0.00000  Uiso   1.00
C88    C     0.49714   0.47927   0.45382   0.00000  Uiso   1.00
C89    C     0.52190   0.50247   0.45444   0.00000  Uiso   1.00
C90    C     0.53949   0.51077   0.43291   0.00000  Uiso   1.00
H25    H     0.58465   0.54067   0.40313   0.00000  Uiso   1.00
O25    O     0.62034   0.55579   0.36315   0.00000  Uiso   1.00
O26    O     0.60566   0.52350   0.32270   0.00000  Uiso   1.00
H26    H     0.55789   0.48046   0.32522   0.00000  Uiso   1.00
H27    H     0.45909   0.41983   0.40032   0.00000  Uiso   1.00
O27    O     0.43845   0.39220   0.35821   0.00000  Uiso   1.00
O28    O     0.46608   0.41393   0.31760   0.00000  Uiso   1.00
H28    H     0.51136   0.45946   0.32226   0.00000  Uiso   1.00
H29    H     0.46852   0.44571   0.43286   0.00000  Uiso   1.00
O29    O     0.48100   0.47308   0.47623   0.00000  Uiso   1.00
O30    O     0.52807   0.51710   0.47744   0.00000  Uiso   1.00
H30    H     0.55851   0.52943   0.43520   0.00000  Uiso   1.00
C91    C     0.99597   0.55126   0.88713   0.00000  Uiso   1.00
C92    C     1.01234   0.54271   0.86421   0.00000  Uiso   1.00
C93    C     0.03482   0.51526   0.86329   0.00000  Uiso   1.00
C94    C     0.04429   0.49841   0.88581   0.00000  Uiso   1.00
C95    C     0.02847   0.50712   0.90886   0.00000  Uiso   1.00
C96    C     1.00386   0.53322   0.90945   0.00000  Uiso   1.00
C97    C     0.06930   0.47301   0.88422   0.00000  Uiso   1.00
C98    C     0.08264   0.46381   0.86110   0.00000  Uiso   1.00
C99    C     0.07162   0.47848   0.83964   0.00000  Uiso   1.00
C100   C     0.04799   0.50365   0.84018   0.00000  Uiso   1.00
C101   C     0.97229   0.57802   0.88675   0.00000  Uiso   1.00
C102   C     0.96620   0.59581   0.86473   0.00000  Uiso   1.00
C103   C     0.98324   0.58839   0.84340   0.00000  Uiso   1.00
C104   C     1.00624   0.56266   0.84271   0.00000  Uiso   1.00
C105   C     0.98811   0.54059   0.93272   0.00000  Uiso   1.00
C106   C     0.99635   0.52291   0.95426   0.00000  Uiso   1.00
C107   C     0.01964   0.49817   0.95367   0.00000  Uiso   1.00
C108   C     0.03580   0.48986   0.93152   0.00000  Uiso   1.00
H31    H     0.07916   0.46002   0.90025   0.00000  Uiso   1.00
O31    O     0.10687   0.43936   0.85822   0.00000  Uiso   1.00
O32    O     0.08533   0.46712   0.81757   0.00000  Uiso   1.00
H32    H     0.04008   0.51290   0.82218   0.00000  Uiso   1.00
H33    H     0.95831   0.58590   0.90290   0.00000  Uiso   1.00
O33    O     0.94364   0.62204   0.86302   0.00000  Uiso   1.00
O34    O     0.97652   0.60783   0.82274   0.00000  Uiso   1.00
H34    H     0.01938   0.55969   0.82525   0.00000  Uiso   1.00
H35    H     0.96937   0.55959   0.93496   0.00000  Uiso   1.00
O35    O     0.98159   0.52899   0.97722   0.00000  Uiso   1.00
O36    O     0.02577   0.48194   0.97607   0.00000  Uiso   1.00
H36    H     0.05339   0.46963   0.93279   0.00000  Uiso   1.00
C109   C     0.95018   0.99673   0.38723   0.00000  Uiso   1.00
C110   C     0.95889   1.01286   0.36425   0.00000  Uiso   1.00
C111   C    -0.01376   0.03540   0.36335   0.00000  Uiso   1.00
C112   C     0.00296   0.04500   0.38587   0.00000  Uiso   1.00
C113   C    -0.00581   0.02930   0.40895   0.00000  Uiso   1.00
C114   C     0.96809   1.00475   0.40957   0.00000  Uiso   1.00
C115   C     0.02828   0.07002   0.38427   0.00000  Uiso   1.00
C116   C     0.03747   0.08333   0.36114   0.00000  Uiso   1.00
C117   C     0.02287   0.07226   0.33968   0.00000  Uiso   1.00
C118   C    -0.00215   0.04854   0.34023   0.00000  Uiso   1.00
C119   C     0.92343   0.97312   0.38690   0.00000  Uiso   1.00
C120   C     0.90589   0.96675   0.36483   0.00000  Uiso   1.00
C121   C     0.91355   0.98343   0.34339   0.00000  Uiso   1.00
C122   C     0.93920   1.00644   0.34267   0.00000  Uiso   1.00
C123   C     0.96063   0.98916   0.43288   0.00000  Uiso   1.00
C124   C     0.97821   0.99747   0.45443   0.00000  Uiso   1.00
C125   C     0.00297   0.02068   0.45382   0.00000  Uiso   1.00
C126   C     0.01137   0.03670   0.43163   0.00000  Uiso   1.00
H37    H     0.04120   0.07994   0.40030   0.00000  Uiso   1.00
O37    O     0.06183   0.10759   0.35822   0.00000  Uiso   1.00
O38    O     0.03411   0.08600   0.31760   0.00000  Uiso   1.00
H38    H     0.98870   0.04059   0.32223   0.00000  Uiso   1.00
H39    H     0.91538   0.95939   0.40312   0.00000  Uiso   1.00
O39    O     0.87970   0.94421   0.36315   0.00000  Uiso   1.00
O40    O     0.89443   0.97633   0.32264   0.00000  Uiso   1.00
H40    H     0.94233   0.01929   0.32511   0.00000  Uiso   1.00
H41    H     0.94162   0.97049   0.43516   0.00000  Uiso   1.00
O41    O     0.97202   0.98286   0.47743   0.00000  Uiso   1.00
O42    O     0.01909   0.02688   0.47624   0.00000  Uiso   1.00
H42    H     0.03159   0.05423   0.43288   0.00000  Uiso   1.00
C127   C     0.45593   0.00168   0.88586   0.00000  Uiso   1.00
C128   C     0.46530  -0.01521   0.86336   0.00000  Uiso   1.00
C129   C     0.48762   0.95721   0.86429   0.00000  Uiso   1.00
C130   C     0.50397   0.94857   0.88721   0.00000  Uiso   1.00
C131   C     0.49616   0.96662   0.90953   0.00000  Uiso   1.00
C132   C     0.47170  -0.00713   0.90891   0.00000  Uiso   1.00
C133   C     0.52755   0.92173   0.88684   0.00000  Uiso   1.00
C134   C     0.53356   0.90394   0.86482   0.00000  Uiso   1.00
C135   C     0.51650   0.91142   0.84349   0.00000  Uiso   1.00
C136   C     0.49358   0.93722   0.84280   0.00000  Uiso   1.00
C137   C     0.43105   0.02721   0.88427   0.00000  Uiso   1.00
C138   C     0.41770   0.03644   0.86115   0.00000  Uiso   1.00
C139   C     0.42865   0.02174   0.83968   0.00000  Uiso   1.00
C140   C     0.45221  -0.00351   0.84023   0.00000  Uiso   1.00
C141   C     0.46444   0.01014   0.93157   0.00000  Uiso   1.00
C142   C     0.48049   0.00169   0.95374   0.00000  Uiso   1.00
C143   C     0.50361   0.97679   0.95437   0.00000  Uiso   1.00
C144   C     0.51179   0.95909   0.93283   0.00000  Uiso   1.00
H43    H     0.54156   0.91383   0.90298   0.00000  Uiso   1.00
O43    O     0.55606   0.87766   0.86309   0.00000  Uiso   1.00
O44    O     0.52317   0.89199   0.82282   0.00000  Uiso   1.00
H44    H     0.48041   0.94024   0.82536   0.00000  Uiso   1.00
H45    H     0.42130   0.04028   0.90028   0.00000  Uiso   1.00
O45    O     0.39354   0.06097   0.85826   0.00000  Uiso   1.00
O46    O     0.41494   0.03316   0.81761   0.00000  Uiso   1.00
H46    H     0.46012   0.98724   0.82224   0.00000  Uiso   1.00
H47    H     0.44695   0.03045   0.93283   0.00000  Uiso   1.00
O47    O     0.47434   0.01787   0.97613   0.00000  Uiso   1.00
O48    O     0.51822   0.97054   0.97737   0.00000  Uiso   1.00
H48    H     0.53033   0.93990   0.93512   0.00000  Uiso   1.00
C145   C     0.11765   0.19290   0.26320   0.00000  Uiso   1.00
C146   C     0.13369   0.20534   0.28451   0.00000  Uiso   1.00
C147   C     0.12719   0.19121   0.30814   0.00000  Uiso   1.00
C148   C     0.10444   0.16465   0.30977   0.00000  Uiso   1.00
C149   C     0.08904   0.15257   0.28856   0.00000  Uiso   1.00
C150   C     0.09531   0.16633   0.26506   0.00000  Uiso   1.00
O49    O     0.12426   0.20758   0.24029   0.00000  Uiso   1.00
O50    O     0.15574   0.23185   0.28141   0.00000  Uiso   1.00
H49    H     0.13935   0.20072   0.32478   0.00000  Uiso   1.00
O51    O     0.09583   0.14913   0.33206   0.00000  Uiso   1.00
O52    O     0.06719   0.12651   0.29193   0.00000  Uiso   1.00
H50    H     0.08293   0.15669   0.24854   0.00000  Uiso   1.00
Fe9    Cu    0.06485   0.11730   0.32501   0.00000  Uiso   1.00
C151   C     0.29576   0.13351   0.78482   0.00000  Uiso   1.00
C152   C     0.30825   0.11764   0.76345   0.00000  Uiso   1.00
C153   C     0.33482   0.09523   0.76522   0.00000  Uiso   1.00
C154   C     0.34858   0.08873   0.78870   0.00000  Uiso   1.00
C155   C     0.33654   0.10406   0.80995   0.00000  Uiso   1.00
C156   C     0.30996   0.12686   0.80842   0.00000  Uiso   1.00
O53    O     0.26912   0.15550   0.78182   0.00000  Uiso   1.00
O54    O     0.29355   0.12445   0.74056   0.00000  Uiso   1.00
H51    H     0.34445   0.08294   0.74866   0.00000  Uiso   1.00
O55    O     0.37456   0.06669   0.79200   0.00000  Uiso   1.00
O56    O     0.35211   0.09529   0.83221   0.00000  Uiso   1.00
H52    H     0.30045   0.13892   0.82511   0.00000  Uiso   1.00
Fe10   Cu    0.38380   0.06413   0.82508   0.00000  Uiso   1.00
C157   C     0.36665   0.29449   0.28444   0.00000  Uiso   1.00
C158   C     0.38264   0.30700   0.26313   0.00000  Uiso   1.00
C159   C     0.40499   0.33356   0.26501   0.00000  Uiso   1.00
C160   C     0.41131   0.34726   0.28853   0.00000  Uiso   1.00
C161   C     0.39596   0.33510   0.30972   0.00000  Uiso   1.00
C162   C     0.37322   0.30855   0.30808   0.00000  Uiso   1.00
O57    O     0.34458   0.26801   0.28131   0.00000  Uiso   1.00
O58    O     0.37596   0.29239   0.24020   0.00000  Uiso   1.00
H53    H     0.41733   0.34325   0.24850   0.00000  Uiso   1.00
O59    O     0.43314   0.37333   0.29191   0.00000  Uiso   1.00
O60    O     0.40459   0.35059   0.33203   0.00000  Uiso   1.00
H54    H     0.36110   0.29899   0.32472   0.00000  Uiso   1.00
Fe11   Cu    0.43546   0.38251   0.32500   0.00000  Uiso   1.00
C163   C     0.19189   0.38262   0.76336   0.00000  Uiso   1.00
C164   C     0.20443   0.36677   0.78474   0.00000  Uiso   1.00
C165   C     0.19035   0.37350   0.80835   0.00000  Uiso   1.00
C166   C     0.16379   0.39632   0.80989   0.00000  Uiso   1.00
C167   C     0.15168   0.41162   0.78863   0.00000  Uiso   1.00
C168   C     0.16535   0.40507   0.76514   0.00000  Uiso   1.00
O61    O     0.20647   0.37572   0.74046   0.00000  Uiso   1.00
O62    O     0.23098   0.34469   0.78173   0.00000  Uiso   1.00
H55    H     0.19991   0.36147   0.82504   0.00000  Uiso   1.00
O63    O     0.14828   0.40509   0.83215   0.00000  Uiso   1.00
O64    O     0.12569   0.43365   0.79194   0.00000  Uiso   1.00
H56    H     0.15567   0.41734   0.74858   0.00000  Uiso   1.00
Fe12   Cu    0.11654   0.43620   0.82502   0.00000  Uiso   1.00
C169   C     0.11145   0.28821   0.22901   0.00000  Uiso   1.00
C170   C     0.12948   0.27870   0.20774   0.00000  Uiso   1.00
C171   C     0.12246   0.29363   0.18443   0.00000  Uiso   1.00
C172   C     0.09719   0.31793   0.18312   0.00000  Uiso   1.00
C173   C     0.07945   0.32664   0.20423   0.00000  Uiso   1.00
C174   C     0.08620   0.31209   0.22738   0.00000  Uiso   1.00
O65    O     0.11930   0.27363   0.25173   0.00000  Uiso   1.00
O66    O     0.15422   0.25453   0.21064   0.00000  Uiso   1.00
H57    H     0.13638   0.28666   0.16786   0.00000  Uiso   1.00
O67    O     0.08845   0.33465   0.16131   0.00000  Uiso   1.00
O68    O     0.05506   0.35047   0.20121   0.00000  Uiso   1.00
H58    H     0.07222   0.31936   0.24387   0.00000  Uiso   1.00
Fe13   Cu    0.05559   0.36436   0.16903   0.00000  Uiso   1.00
C175   C     0.22235   0.12947   0.70810   0.00000  Uiso   1.00
C176   C     0.21300   0.11126   0.72932   0.00000  Uiso   1.00
C177   C     0.18920   0.08600   0.72765   0.00000  Uiso   1.00
C178   C     0.17456   0.07943   0.70450   0.00000  Uiso   1.00
C179   C     0.18319   0.09728   0.68343   0.00000  Uiso   1.00
C180   C     0.20742   0.12256   0.68479   0.00000  Uiso   1.00
O69    O     0.24632   0.15434   0.71106   0.00000  Uiso   1.00
O70    O     0.22761   0.11900   0.75204   0.00000  Uiso   1.00
H59    H     0.18202   0.07192   0.74410   0.00000  Uiso   1.00
O71    O     0.15067   0.05517   0.70146   0.00000  Uiso   1.00
O72    O     0.16642   0.08869   0.66162   0.00000  Uiso   1.00
H60    H     0.21429   0.13660   0.66825   0.00000  Uiso   1.00
Fe14   Cu    0.13663   0.05597   0.66933   0.00000  Uiso   1.00
C181   C     0.38889   0.21187   0.22885   0.00000  Uiso   1.00
C182   C     0.37079   0.22136   0.20760   0.00000  Uiso   1.00
C183   C     0.37776   0.20643   0.18429   0.00000  Uiso   1.00
C184   C     0.40307   0.18215   0.18297   0.00000  Uiso   1.00
C185   C     0.42090   0.17352   0.20406   0.00000  Uiso   1.00
C186   C     0.41421   0.18808   0.22721   0.00000  Uiso   1.00
O73    O     0.38102   0.22636   0.25159   0.00000  Uiso   1.00
O74    O     0.34599   0.24546   0.21052   0.00000  Uiso   1.00
H61    H     0.36376   0.21334   0.16773   0.00000  Uiso   1.00
O75    O     0.41174   0.16539   0.16118   0.00000  Uiso   1.00
O76    O     0.44530   0.14971   0.20105   0.00000  Uiso   1.00
H62    H     0.42826   0.18085   0.24368   0.00000  Uiso   1.00
Fe15   Cu    0.44469   0.13575   0.16890   0.00000  Uiso   1.00
C187   C     0.27765   0.37063   0.70800   0.00000  Uiso   1.00
C188   C     0.28702   0.38885   0.72920   0.00000  Uiso   1.00
C189   C     0.31083   0.41410   0.72752   0.00000  Uiso   1.00
C190   C     0.32547   0.42063   0.70439   0.00000  Uiso   1.00
C191   C     0.31685   0.40276   0.68333   0.00000  Uiso   1.00
C192   C     0.29260   0.37750   0.68468   0.00000  Uiso   1.00
O77    O     0.25365   0.34580   0.71096   0.00000  Uiso   1.00
O78    O     0.27242   0.38116   0.75192   0.00000  Uiso   1.00
H63    H     0.31801   0.42819   0.74397   0.00000  Uiso   1.00
O79    O     0.34936   0.44489   0.70135   0.00000  Uiso   1.00
O80    O     0.33363   0.41131   0.66153   0.00000  Uiso   1.00
H64    H     0.28573   0.36344   0.66815   0.00000  Uiso   1.00
Fe16   Cu    0.36341   0.44405   0.66923   0.00000  Uiso   1.00
C193   C     0.86629   0.79642   0.71532   0.00000  Uiso   1.00
C194   C     0.88199   0.80903   0.73672   0.00000  Uiso   1.00
C195   C     0.90425   0.83568   0.73496   0.00000  Uiso   1.00
C196   C     0.91078   0.84936   0.71146   0.00000  Uiso   1.00
C197   C     0.89562   0.83718   0.69019   0.00000  Uiso   1.00
C198   C     0.87297   0.81054   0.69171   0.00000  Uiso   1.00
O81    O     0.84444   0.76972   0.71831   0.00000  Uiso   1.00
O82    O     0.87517   0.79438   0.75962   0.00000  Uiso   1.00
H65    H     0.91642   0.84541   0.75154   0.00000  Uiso   1.00
O83    O     0.93270   0.87539   0.70816   0.00000  Uiso   1.00
O84    O     0.90441   0.85268   0.66793   0.00000  Uiso   1.00
H66    H     0.86104   0.80093   0.67501   0.00000  Uiso   1.00
Fe17   Cu    0.93542   0.88443   0.67507   0.00000  Uiso   1.00
C199   C     0.69338   0.88266   0.23695   0.00000  Uiso   1.00
C200   C     0.70575   0.86648   0.21567   0.00000  Uiso   1.00
C201   C     0.69163   0.87301   0.19203   0.00000  Uiso   1.00
C202   C     0.66516   0.89592   0.19037   0.00000  Uiso   1.00
C203   C     0.65314   0.91145   0.21154   0.00000  Uiso   1.00
C204   C     0.66690   0.90516   0.23506   0.00000  Uiso   1.00
O85    O     0.70806   0.87601   0.25988   0.00000  Uiso   1.00
O86    O     0.73218   0.84427   0.21881   0.00000  Uiso   1.00
H67    H     0.70108   0.86074   0.17541   0.00000  Uiso   1.00
O87    O     0.64964   0.90455   0.16806   0.00000  Uiso   1.00
O88    O     0.62714   0.93344   0.20814   0.00000  Uiso   1.00
H68    H     0.65731   0.91764   0.25155   0.00000  Uiso   1.00
Fe18   Cu    0.61784   0.93564   0.17507   0.00000  Uiso   1.00
C205   C     0.61777   0.69139   0.73658   0.00000  Uiso   1.00
C206   C     0.63344   0.70402   0.71518   0.00000  Uiso   1.00
C207   C     0.62663   0.69000   0.69156   0.00000  Uiso   1.00
C208   C     0.60390   0.66342   0.69004   0.00000  Uiso   1.00
C209   C     0.58878   0.65122   0.71131   0.00000  Uiso   1.00
C210   C     0.59542   0.66482   0.73481   0.00000  Uiso   1.00
O89    O     0.62471   0.70593   0.75949   0.00000  Uiso   1.00
O90    O     0.65539   0.73064   0.71818   0.00000  Uiso   1.00
H69    H     0.63852   0.69963   0.67485   0.00000  Uiso   1.00
O91    O     0.59502   0.64800   0.66776   0.00000  Uiso   1.00
O92    O     0.56679   0.62525   0.70801   0.00000  Uiso   1.00
H70    H     0.58328   0.65508   0.75139   0.00000  Uiso   1.00
Fe19   Cu    0.56407   0.61620   0.67492   0.00000  Uiso   1.00
C211   C     0.79401   0.63312   0.21539   0.00000  Uiso   1.00
C212   C     0.80645   0.61698   0.23668   0.00000  Uiso   1.00
C213   C     0.83300   0.59456   0.23480   0.00000  Uiso   1.00
C214   C     0.84675   0.58831   0.21129   0.00000  Uiso   1.00
C215   C     0.83465   0.60379   0.19010   0.00000  Uiso   1.00
C216   C     0.80811   0.62661   0.19175   0.00000  Uiso   1.00
O93    O     0.76756   0.65529   0.21853   0.00000  Uiso   1.00
O94    O     0.79180   0.62359   0.25961   0.00000  Uiso   1.00
H71    H     0.84264   0.58210   0.25129   0.00000  Uiso   1.00
O95    O     0.87282   0.56641   0.20790   0.00000  Uiso   1.00
O96    O     0.85018   0.59519   0.16780   0.00000  Uiso   1.00
H72    H     0.79859   0.63883   0.17512   0.00000  Uiso   1.00
Fe20   Cu    0.88204   0.56415   0.17483   0.00000  Uiso   1.00
C217   C     0.88891   0.71379   0.77091   0.00000  Uiso   1.00
C218   C     0.87055   0.72303   0.79208   0.00000  Uiso   1.00
C219   C     0.87739   0.70799   0.81538   0.00000  Uiso   1.00
C220   C     0.90276   0.68379   0.81676   0.00000  Uiso   1.00
C221   C     0.92078   0.67531   0.79574   0.00000  Uiso   1.00
C222   C     0.91428   0.69005   0.77261   0.00000  Uiso   1.00
O97    O     0.88119   0.72843   0.74818   0.00000  Uiso   1.00
O98    O     0.84559   0.74696   0.78908   0.00000  Uiso   1.00
H73    H     0.86320   0.71473   0.83188   0.00000  Uiso   1.00
O99    O     0.91128   0.66690   0.83855   0.00000  Uiso   1.00
O100   O     0.94512   0.65143   0.79879   0.00000  Uiso   1.00
H74    H     0.92849   0.68297   0.75619   0.00000  Uiso   1.00
Fe21   Cu    0.94413   0.63714   0.83086   0.00000  Uiso   1.00
C223   C     0.77910   0.87059   0.29241   0.00000  Uiso   1.00
C224   C     0.78865   0.88848   0.27110   0.00000  Uiso   1.00
C225   C     0.81259   0.91361   0.27264   0.00000  Uiso   1.00
C226   C     0.82718   0.92038   0.29577   0.00000  Uiso   1.00
C227   C     0.81840   0.90281   0.31694   0.00000  Uiso   1.00
C228   C     0.79402   0.87766   0.31571   0.00000  Uiso   1.00
O101   O     0.75493   0.84589   0.28958   0.00000  Uiso   1.00
O102   O     0.77407   0.88057   0.24839   0.00000  Uiso   1.00
H75    H     0.81990   0.92747   0.25611   0.00000  Uiso   1.00
O103   O     0.85116   0.94458   0.29870   0.00000  Uiso   1.00
O104   O     0.83515   0.91156   0.33872   0.00000  Uiso   1.00
H76    H     0.78701   0.86386   0.33232   0.00000  Uiso   1.00
Fe22   Cu    0.86502   0.94415   0.33089   0.00000  Uiso   1.00
C229   C     0.62933   0.77710   0.79200   0.00000  Uiso   1.00
C230   C     0.61097   0.78641   0.77084   0.00000  Uiso   1.00
C231   C     0.58555   0.81009   0.77257   0.00000  Uiso   1.00
C232   C     0.57900   0.82469   0.79573   0.00000  Uiso   1.00
C233   C     0.59700   0.81613   0.81676   0.00000  Uiso   1.00
C234   C     0.62242   0.79198   0.81534   0.00000  Uiso   1.00
O105   O     0.65436   0.75325   0.78897   0.00000  Uiso   1.00
O106   O     0.61873   0.77190   0.74808   0.00000  Uiso   1.00
H77    H     0.57135   0.81723   0.75615   0.00000  Uiso   1.00
O107   O     0.55461   0.84850   0.79882   0.00000  Uiso   1.00
O108   O     0.58844   0.83290   0.83858   0.00000  Uiso   1.00
H78    H     0.63658   0.78515   0.83184   0.00000  Uiso   1.00
Fe23   Cu    0.55558   0.86267   0.83091   0.00000  Uiso   1.00
C235   C     0.71124   0.61123   0.27096   0.00000  Uiso   1.00
C236   C     0.72087   0.62917   0.29223   0.00000  Uiso   1.00
C237   C     0.70598   0.62219   0.31555   0.00000  Uiso   1.00
C238   C     0.68159   0.59706   0.31685   0.00000  Uiso   1.00
C239   C     0.67278   0.57941   0.29572   0.00000  Uiso   1.00
C240   C     0.68731   0.58610   0.27257   0.00000  Uiso   1.00
O109   O     0.72575   0.61907   0.24822   0.00000  Uiso   1.00
O110   O     0.74507   0.65381   0.28933   0.00000  Uiso   1.00
H79    H     0.71303   0.63605   0.33213   0.00000  Uiso   1.00
O111   O     0.66486   0.58840   0.33865   0.00000  Uiso   1.00
O112   O     0.64884   0.55520   0.29872   0.00000  Uiso   1.00
H80    H     0.67996   0.57219   0.25608   0.00000  Uiso   1.00
Fe24   Cu    0.63502   0.55575   0.33089   0.00000  Uiso   1.00
Fe25   Cu    0.50066  -0.00063   0.99996   0.00000  Uiso   1.00
Fe26   Cu    0.49936   0.49951   0.50004   0.00000  Uiso   1.00
Fe27   Cu    0.99922   0.50022  -0.00016   0.00000  Uiso   1.00
Fe28   Cu    1.00068   1.00052   0.50006   0.00000  Uiso   1.00
C241   C     0.25271   0.21496   0.24608   0.00000  Uiso   1.00
C242   C     0.22146   0.23052   0.24479   0.00000  Uiso   1.00
C243   C     0.21891   0.26505   0.24739   0.00000  Uiso   1.00
C244   C     0.24755   0.28493   0.24607   0.00000  Uiso   1.00
C245   C     0.27880   0.26937   0.24475   0.00000  Uiso   1.00
C246   C     0.28137   0.23484   0.24735   0.00000  Uiso   1.00
H81    H     0.25470   0.18801   0.24607   0.00000  Uiso   1.00
O113   O     0.19233   0.21249   0.24112   0.00000  Uiso   1.00
O114   O     0.18744   0.27871   0.25101   0.00000  Uiso   1.00
H82    H     0.24557   0.31188   0.24606   0.00000  Uiso   1.00
O115   O     0.30790   0.28741   0.24105   0.00000  Uiso   1.00
O116   O     0.31286   0.22118   0.25090   0.00000  Uiso   1.00
C247   C     0.21506   0.24725   0.74669   0.00000  Uiso   1.00
C248   C     0.23523   0.21873   0.74800   0.00000  Uiso   1.00
C249   C     0.26972   0.22154   0.74539   0.00000  Uiso   1.00
C250   C     0.28495   0.25292   0.74670   0.00000  Uiso   1.00
C251   C     0.26479   0.28144   0.74796   0.00000  Uiso   1.00
C252   C     0.23030   0.27863   0.74535   0.00000  Uiso   1.00
H83    H     0.18815   0.24506   0.74666   0.00000  Uiso   1.00
O117   O     0.22189   0.18714   0.75158   0.00000  Uiso   1.00
O118   O     0.28802   0.19255   0.74166   0.00000  Uiso   1.00
H84    H     0.31187   0.25510   0.74669   0.00000  Uiso   1.00
O119   O     0.27813   0.31303   0.75150   0.00000  Uiso   1.00
O120   O     0.21199   0.30762   0.74160   0.00000  Uiso   1.00
C253   C     0.75307   0.71519   0.75325   0.00000  Uiso   1.00
C254   C     0.78141   0.73551   0.75200   0.00000  Uiso   1.00
C255   C     0.77832   0.77000   0.75461   0.00000  Uiso   1.00
C256   C     0.74683   0.78508   0.75325   0.00000  Uiso   1.00
C257   C     0.71849   0.76475   0.75194   0.00000  Uiso   1.00
C258   C     0.72157   0.73026   0.75454   0.00000  Uiso   1.00
H85    H     0.75547   0.68827   0.75327   0.00000  Uiso   1.00
O121   O     0.81311   0.72234   0.74850   0.00000  Uiso   1.00
O122   O     0.80715   0.78847   0.75839   0.00000  Uiso   1.00
H86    H     0.74443   0.81199   0.75327   0.00000  Uiso   1.00
O123   O     0.68680   0.77793   0.74840   0.00000  Uiso   1.00
O124   O     0.69274   0.71178   0.75825   0.00000  Uiso   1.00
C259   C     0.71496   0.74747   0.25404   0.00000  Uiso   1.00
C260   C     0.73065   0.77863   0.25542   0.00000  Uiso   1.00
C261   C     0.76518   0.78095   0.25279   0.00000  Uiso   1.00
C262   C     0.78493   0.75215   0.25399   0.00000  Uiso   1.00
C263   C     0.76924   0.72098   0.25524   0.00000  Uiso   1.00
C264   C     0.73471   0.71868   0.25266   0.00000  Uiso   1.00
H87    H     0.68801   0.74568   0.25407   0.00000  Uiso   1.00
O125   O     0.71277   0.80787   0.25918   0.00000  Uiso   1.00
O126   O     0.77896   0.81236   0.24925   0.00000  Uiso   1.00
H88    H     0.81187   0.75393   0.25398   0.00000  Uiso   1.00
O127   O     0.78715   0.69172   0.25884   0.00000  Uiso   1.00
O128   O     0.72091   0.68729   0.24901   0.00000  Uiso   1.00
loop_
_geom_bond_atom_site_label_1
_geom_bond_atom_site_label_2
_geom_bond_distance
_geom_bond_site_symmetry_2
_ccdc_geom_bond_type
Fe1    O49     1.924   .     S
Fe1    O50     1.941   .     S
Fe1    O65     1.923   .     S
Fe1    O66     1.943   .     S
Fe1    O113    1.933   .     S
Fe1    O114    1.933   .     S
Fe2    O53     1.941   .     S
Fe2    O54     1.924   .     S
Fe2    O69     1.943   .     S
Fe2    O70     1.923   .     S
Fe2    O117    1.934   .     S
Fe2    O118    1.933   .     S
Fe3    O57     1.941   .     S
Fe3    O58     1.924   .     S
Fe3    O73     1.923   .     S
Fe3    O74     1.943   .     S
Fe3    O115    1.933   .     S
Fe3    O116    1.934   .     S
Fe4    O61     1.924   .     S
Fe4    O62     1.941   .     S
Fe4    O77     1.943   .     S
Fe4    O78     1.923   .     S
Fe4    O119    1.934   .     S
Fe4    O120    1.934   .     S
Fe5    O81     1.941   .     S
Fe5    O82     1.924   .     S
Fe5    O97     1.923   .     S
Fe5    O98     1.944   .     S
Fe5    O121    1.934   .     S
Fe5    O122    1.934   .     S
Fe6    O85     1.924   .     S
Fe6    O86     1.941   .     S
Fe6    O101    1.943   .     S
Fe6    O102    1.923   .     S
Fe6    O125    1.933   .     S
Fe6    O126    1.934   .     S
Fe7    O89     1.924   .     S
Fe7    O90     1.941   .     S
Fe7    O105    1.943   .     S
Fe7    O106    1.923   .     S
Fe7    O123    1.934   .     S
Fe7    O124    1.934   .     S
Fe8    O93     1.941   .     S
Fe8    O94     1.924   .     S
Fe8    O109    1.923   .     S
Fe8    O110    1.943   .     S
Fe8    O127    1.933   .     S
Fe8    O128    1.934   .     S
C1     C2      1.429   .     A
C1     C6      1.428   .     A
C1     C11     1.431   .     A
C2     C3      1.421   1_545 A
C2     C14     1.419   .     A
C3     C2      1.421   1_565 A
C3     C4      1.428   .     A
C3     C10     1.420   .     A
C4     C5      1.427   .     A
C4     C7      1.430   .     A
C5     C6      1.437   1_565 A
C5     C18     1.423   .     A
C6     C5      1.437   1_545 A
C6     C15     1.423   .     A
C7     C8      1.394   .     A
C7     H1      1.076   .     S
C8     C9      1.360   .     A
C8     O1      1.387   .     S
C9     C10     1.383   .     A
C9     O2      1.377   .     S
C10    H2      1.076   1_565 S
C11    C12     1.395   .     A
C11    H3      1.075   .     S
C12    C13     1.360   .     A
C12    O3      1.388   .     S
C13    C14     1.382   .     A
C13    O4      1.376   .     S
C14    H4      1.076   .     S
C15    C16     1.389   .     A
C15    H5      1.075   .     S
C16    C17     1.361   1_545 A
C16    O5      1.382   .     S
C17    C16     1.361   1_565 A
C17    C18     1.388   .     A
C17    O6      1.382   .     S
C18    H6      1.075   .     S
O1     Fe18    1.818   .     S
O2     Fe18    1.803   .     S
H2     C10     1.076   1_545 S
O3     Fe15    1.819   .     S
O4     Fe15    1.802   .     S
O5     Fe25    1.811   1_554 S
O6     Fe25    1.810   1_564 S
C19    C20     1.430   .     A
C19    C24     1.428   .     A
C19    C29     1.431   .     A
C20    C21     1.421   .     A
C20    C32     1.419   .     A
C21    C22     1.428   .     A
C21    C28     1.420   .     A
C22    C23     1.427   .     A
C22    C25     1.430   .     A
C23    C24     1.437   .     A
C23    C36     1.423   .     A
C24    C33     1.424   .     A
C25    C26     1.394   .     A
C25    H7      1.076   .     S
C26    C27     1.360   .     A
C26    O7      1.387   .     S
C27    C28     1.383   .     A
C27    O8      1.377   .     S
C28    H8      1.077   .     S
C29    C30     1.395   .     A
C29    H9      1.075   .     S
C30    C31     1.360   .     A
C30    O9      1.388   .     S
C31    C32     1.382   .     A
C31    O10     1.376   .     S
C32    H10     1.077   .     S
C33    C34     1.389   .     A
C33    H11     1.075   .     S
C34    C35     1.361   .     A
C34    O11     1.382   .     S
C35    C36     1.388   .     A
C35    O12     1.382   .     S
C36    H12     1.075   .     S
O7     Fe19    1.818   .     S
O8     Fe19    1.804   .     S
O9     Fe16    1.819   .     S
O10    Fe16    1.802   .     S
O11    Fe26    1.811   .     S
O12    Fe26    1.810   .     S
C37    C38     1.429   .     A
C37    C42     1.427   .     A
C37    C47     1.430   .     A
C38    C39     1.421   1_655 A
C38    C50     1.419   .     A
C39    C38     1.421   1_455 A
C39    C40     1.429   .     A
C39    C46     1.419   .     A
C40    C41     1.428   .     A
C40    C43     1.431   .     A
C41    C42     1.437   1_455 A
C41    C54     1.423   .     A
C42    C41     1.437   1_655 A
C42    C51     1.423   .     A
C43    C44     1.395   .     A
C43    H13     1.075   .     S
C44    C45     1.360   .     A
C44    O13     1.388   .     S
C45    C46     1.382   .     A
C45    O14     1.376   .     S
C46    H14     1.076   1_455 S
C47    C48     1.395   .     A
C47    H15     1.076   .     S
C48    C49     1.360   .     A
C48    O15     1.387   .     S
C49    C50     1.382   .     A
C49    O16     1.376   .     S
C50    H16     1.076   .     S
C51    C52     1.388   .     A
C51    H17     1.075   .     S
C52    C53     1.361   1_655 A
C52    O17     1.382   .     S
C53    C52     1.361   1_455 A
C53    C54     1.389   .     A
C53    O18     1.382   .     S
C54    H18     1.075   .     S
O13    Fe13    1.819   .     S
O14    Fe13    1.802   .     S
H14    C46     1.076   1_655 S
O15    Fe20    1.818   .     S
O16    Fe20    1.803   .     S
O17    Fe27    1.810   .     S
O18    Fe27    1.811   1_455 S
C55    C56     1.428   .     A
C55    C60     1.427   .     A
C55    C65     1.430   .     A
C56    C57     1.422   1_665 A
C56    C68     1.420   .     A
C57    C56     1.422   1_445 A
C57    C58     1.430   .     A
C57    C64     1.419   .     A
C58    C59     1.428   .     A
C58    C61     1.431   .     A
C59    C60     1.437   1_445 A
C59    C72     1.424   .     A
C60    C59     1.437   1_665 A
C60    C69     1.423   .     A
C61    C62     1.395   .     A
C61    H19     1.075   .     S
C62    C63     1.360   .     A
C62    O19     1.388   .     S
C63    C64     1.382   .     A
C63    O20     1.376   .     S
C64    H20     1.077   1_545 S
C65    C66     1.394   .     A
C65    H21     1.076   .     S
C66    C67     1.360   .     A
C66    O21     1.387   .     S
C67    C68     1.383   .     A
C67    O22     1.377   .     S
C68    H22     1.077   1_655 S
C69    C70     1.388   .     A
C69    H23     1.075   .     S
C70    C71     1.361   1_665 A
C70    O23     1.382   .     S
C71    C70     1.361   1_445 A
C71    C72     1.389   .     A
C71    O24     1.382   .     S
C72    H24     1.075   .     S
O19    Fe14    1.819   .     S
O20    Fe14    1.803   .     S
H20    C64     1.077   1_565 S
O21    Fe17    1.818   .     S
O22    Fe17    1.804   .     S
H22    C68     1.077   1_455 S
O23    Fe28    1.810   .     S
O24    Fe28    1.811   1_445 S
C73    C74     1.429   .     A
C73    C78     1.427   .     A
C73    C83     1.430   .     A
C74    C75     1.421   .     A
C74    C86     1.419   .     A
C75    C76     1.429   .     A
C75    C82     1.419   .     A
C76    C77     1.428   .     A
C76    C79     1.431   .     A
C77    C78     1.437   .     A
C77    C90     1.423   .     A
C78    C87     1.423   .     A
C79    C80     1.395   .     A
C79    H25     1.075   .     S
C80    C81     1.360   .     A
C80    O25     1.388   .     S
C81    C82     1.382   .     A
C81    O26     1.376   .     S
C82    H26     1.076   .     S
C83    C84     1.394   .     A
C83    H27     1.076   .     S
C84    C85     1.360   .     A
C84    O27     1.387   .     S
C85    C86     1.382   .     A
C85    O28     1.376   .     S
C86    H28     1.076   .     S
C87    C88     1.388   .     A
C87    H29     1.075   .     S
C88    C89     1.361   .     A
C88    O29     1.382   .     S
C89    C90     1.389   .     A
C89    O30     1.382   .     S
C90    H30     1.075   .     S
O25    Fe24    1.819   .     S
O26    Fe24    1.802   .     S
O27    Fe11    1.818   .     S
O28    Fe11    1.803   .     S
O29    Fe26    1.810   .     S
O30    Fe26    1.811   .     S
C91    C92     1.430   .     A
C91    C96     1.428   .     A
C91    C101    1.431   .     A
C92    C93     1.421   1_655 A
C92    C104    1.419   .     A
C93    C92     1.421   1_455 A
C93    C94     1.429   .     A
C93    C100    1.420   .     A
C94    C95     1.427   .     A
C94    C97     1.430   .     A
C95    C96     1.437   1_455 A
C95    C108    1.423   .     A
C96    C95     1.437   1_655 A
C96    C105    1.424   .     A
C97    C98     1.394   .     A
C97    H31     1.076   .     S
C98    C99     1.360   .     A
C98    O31     1.387   .     S
C99    C100    1.383   .     A
C99    O32     1.377   .     S
C100   H32     1.077   .     S
C101   C102    1.395   .     A
C101   H33     1.075   .     S
C102   C103    1.360   .     A
C102   O33     1.388   .     S
C103   C104    1.382   .     A
C103   O34     1.376   .     S
C104   H34     1.076   1_655 S
C105   C106    1.389   .     A
C105   H35     1.075   .     S
C106   C107    1.361   1_655 A
C106   O35     1.382   .     S
C107   C106    1.361   1_455 A
C107   C108    1.388   .     A
C107   O36     1.382   .     S
C108   H36     1.075   .     S
O31    Fe12    1.818   .     S
O32    Fe12    1.803   .     S
O33    Fe21    1.819   .     S
O34    Fe21    1.802   .     S
H34    C104    1.076   1_455 S
O35    Fe27    1.811   1_556 S
O36    Fe27    1.810   1_456 S
C109   C110    1.430   .     A
C109   C114    1.428   .     A
C109   C119    1.431   .     A
C110   C111    1.422   1_665 A
C110   C122    1.419   .     A
C111   C110    1.422   1_445 A
C111   C112    1.429   .     A
C111   C118    1.420   .     A
C112   C113    1.427   .     A
C112   C115    1.430   .     A
C113   C114    1.437   1_445 A
C113   C126    1.423   .     A
C114   C113    1.437   1_665 A
C114   C123    1.423   .     A
C115   C116    1.394   .     A
C115   H37     1.076   .     S
C116   C117    1.360   .     A
C116   O37     1.387   .     S
C117   C118    1.383   .     A
C117   O38     1.377   .     S
C118   H38     1.076   1_455 S
C119   C120    1.395   .     A
C119   H39     1.075   .     S
C120   C121    1.360   .     A
C120   O39     1.388   .     S
C121   C122    1.382   .     A
C121   O40     1.376   .     S
C122   H40     1.076   1_565 S
C123   C124    1.389   .     A
C123   H41     1.075   .     S
C124   C125    1.361   1_665 A
C124   O41     1.382   .     S
C125   C124    1.361   1_445 A
C125   C126    1.388   .     A
C125   O42     1.382   .     S
C126   H42     1.075   .     S
O37    Fe9     1.818   .     S
O38    Fe9     1.803   .     S
H38    C118    1.076   1_655 S
O39    Fe22    1.819   .     S
O40    Fe22    1.803   .     S
H40    C122    1.076   1_545 S
O41    Fe28    1.811   .     S
O42    Fe28    1.810   1_445 S
C127   C128    1.428   .     A
C127   C132    1.427   .     A
C127   C137    1.430   .     A
C128   C129    1.422   1_545 A
C128   C140    1.420   .     A
C129   C128    1.422   1_565 A
C129   C130    1.430   .     A
C129   C136    1.419   .     A
C130   C131    1.428   .     A
C130   C133    1.431   .     A
C131   C132    1.437   1_565 A
C131   C144    1.424   .     A
C132   C131    1.437   1_545 A
C132   C141    1.423   .     A
C133   C134    1.395   .     A
C133   H43     1.075   .     S
C134   C135    1.360   .     A
C134   O43     1.388   .     S
C135   C136    1.382   .     A
C135   O44     1.376   .     S
C136   H44     1.076   .     S
C137   C138    1.394   .     A
C137   H45     1.076   .     S
C138   C139    1.360   .     A
C138   O45     1.387   .     S
C139   C140    1.383   .     A
C139   O46     1.377   .     S
C140   H46     1.077   1_545 S
C141   C142    1.388   .     A
C141   H47     1.075   .     S
C142   C143    1.361   1_545 A
C142   O47     1.382   .     S
C143   C142    1.361   1_565 A
C143   C144    1.389   .     A
C143   O48     1.382   .     S
C144   H48     1.075   .     S
O43    Fe23    1.819   .     S
O44    Fe23    1.802   .     S
O45    Fe10    1.818   .     S
O46    Fe10    1.804   .     S
H46    C140    1.077   1_565 S
O47    Fe25    1.810   .     S
O48    Fe25    1.811   1_565 S
C145   C146    1.398   .     A
C145   C150    1.395   .     A
C145   O49     1.383   .     S
C146   C147    1.407   .     A
C146   O50     1.392   .     S
C147   C148    1.405   .     A
C147   H49     1.082   .     S
C148   C149    1.377   .     A
C148   O51     1.386   .     S
C149   C150    1.393   .     A
C149   O52     1.375   .     S
C150   H50     1.083   .     S
O51    Fe9     1.820   .     S
O52    Fe9     1.805   .     S
C151   C152    1.398   .     A
C151   C156    1.407   .     A
C151   O53     1.392   .     S
C152   C153    1.395   .     A
C152   O54     1.383   .     S
C153   C154    1.393   .     A
C153   H51     1.083   .     S
C154   C155    1.377   .     A
C154   O55     1.376   .     S
C155   C156    1.405   .     A
C155   O56     1.386   .     S
C156   H52     1.082   .     S
O55    Fe10    1.806   .     S
O56    Fe10    1.820   .     S
C157   C158    1.398   .     A
C157   C162    1.407   .     A
C157   O57     1.392   .     S
C158   C159    1.395   .     A
C158   O58     1.383   .     S
C159   C160    1.393   .     A
C159   H53     1.083   .     S
C160   C161    1.377   .     A
C160   O59     1.375   .     S
C161   C162    1.404   .     A
C161   O60     1.386   .     S
C162   H54     1.082   .     S
O59    Fe11    1.805   .     S
O60    Fe11    1.820   .     S
C163   C164    1.398   .     A
C163   C168    1.395   .     A
C163   O61     1.383   .     S
C164   C165    1.407   .     A
C164   O62     1.392   .     S
C165   C166    1.404   .     A
C165   H55     1.082   .     S
C166   C167    1.377   .     A
C166   O63     1.386   .     S
C167   C168    1.393   .     A
C167   O64     1.376   .     S
C168   H56     1.083   .     S
O63    Fe12    1.820   .     S
O64    Fe12    1.806   .     S
C169   C170    1.398   .     A
C169   C174    1.394   .     A
C169   O65     1.382   .     S
C170   C171    1.408   .     A
C170   O66     1.394   .     S
C171   C172    1.406   .     A
C171   H57     1.082   .     S
C172   C173    1.377   .     A
C172   O67     1.387   .     S
C173   C174    1.392   .     A
C173   O68     1.375   .     S
C174   H58     1.083   .     S
O67    Fe13    1.821   .     S
O68    Fe13    1.804   .     S
C175   C176    1.398   .     A
C175   C180    1.408   .     A
C175   O69     1.394   .     S
C176   C177    1.394   .     A
C176   O70     1.382   .     S
C177   C178    1.392   .     A
C177   H59     1.083   .     S
C178   C179    1.377   .     A
C178   O71     1.375   .     S
C179   C180    1.406   .     A
C179   O72     1.387   .     S
C180   H60     1.082   .     S
O71    Fe14    1.805   .     S
O72    Fe14    1.821   .     S
C181   C182    1.398   .     A
C181   C186    1.394   .     A
C181   O73     1.381   .     S
C182   C183    1.408   .     A
C182   O74     1.394   .     S
C183   C184    1.406   .     A
C183   H61     1.082   .     S
C184   C185    1.377   .     A
C184   O75     1.387   .     S
C185   C186    1.392   .     A
C185   O76     1.375   .     S
C186   H62     1.083   .     S
O75    Fe15    1.822   .     S
O76    Fe15    1.804   .     S
C187   C188    1.398   .     A
C187   C192    1.408   .     A
C187   O77     1.394   .     S
C188   C189    1.394   .     A
C188   O78     1.381   .     S
C189   C190    1.392   .     A
C189   H63     1.083   .     S
C190   C191    1.377   .     A
C190   O79     1.375   .     S
C191   C192    1.406   .     A
C191   O80     1.387   .     S
C192   H64     1.082   .     S
O79    Fe16    1.804   .     S
O80    Fe16    1.821   .     S
C193   C194    1.398   .     A
C193   C198    1.407   .     A
C193   O81     1.392   .     S
C194   C195    1.395   .     A
C194   O82     1.383   .     S
C195   C196    1.393   .     A
C195   H65     1.083   .     S
C196   C197    1.377   .     A
C196   O83     1.376   .     S
C197   C198    1.404   .     A
C197   O84     1.386   .     S
C198   H66     1.082   .     S
O83    Fe17    1.806   .     S
O84    Fe17    1.820   .     S
C199   C200    1.398   .     A
C199   C204    1.395   .     A
C199   O85     1.383   .     S
C200   C201    1.407   .     A
C200   O86     1.392   .     S
C201   C202    1.404   .     A
C201   H67     1.082   .     S
C202   C203    1.377   .     A
C202   O87     1.386   .     S
C203   C204    1.393   .     A
C203   O88     1.375   .     S
C204   H68     1.083   .     S
O87    Fe18    1.820   .     S
O88    Fe18    1.806   .     S
C205   C206    1.398   .     A
C205   C210    1.395   .     A
C205   O89     1.383   .     S
C206   C207    1.407   .     A
C206   O90     1.392   .     S
C207   C208    1.404   .     A
C207   H69     1.082   .     S
C208   C209    1.377   .     A
C208   O91     1.386   .     S
C209   C210    1.393   .     A
C209   O92     1.376   .     S
C210   H70     1.083   .     S
O91    Fe19    1.820   .     S
O92    Fe19    1.806   .     S
C211   C212    1.398   .     A
C211   C216    1.407   .     A
C211   O93     1.392   .     S
C212   C213    1.395   .     A
C212   O94     1.383   .     S
C213   C214    1.393   .     A
C213   H71     1.083   .     S
C214   C215    1.377   .     A
C214   O95     1.375   .     S
C215   C216    1.405   .     A
C215   O96     1.386   .     S
C216   H72     1.082   .     S
O95    Fe20    1.805   .     S
O96    Fe20    1.820   .     S
C217   C218    1.398   .     A
C217   C222    1.394   .     A
C217   O97     1.382   .     S
C218   C219    1.408   .     A
C218   O98     1.394   .     S
C219   C220    1.406   .     A
C219   H73     1.082   .     S
C220   C221    1.377   .     A
C220   O99     1.387   .     S
C221   C222    1.392   .     A
C221   O100    1.375   .     S
C222   H74     1.083   .     S
O99    Fe21    1.822   .     S
O100   Fe21    1.804   .     S
C223   C224    1.398   .     A
C223   C228    1.408   .     A
C223   O101    1.394   .     S
C224   C225    1.394   .     A
C224   O102    1.382   .     S
C225   C226    1.392   .     A
C225   H75     1.083   .     S
C226   C227    1.377   .     A
C226   O103    1.375   .     S
C227   C228    1.406   .     A
C227   O104    1.387   .     S
C228   H76     1.082   .     S
O103   Fe22    1.805   .     S
O104   Fe22    1.821   .     S
C229   C230    1.398   .     A
C229   C234    1.408   .     A
C229   O105    1.394   .     S
C230   C231    1.394   .     A
C230   O106    1.382   .     S
C231   C232    1.392   .     A
C231   H77     1.083   .     S
C232   C233    1.377   .     A
C232   O107    1.375   .     S
C233   C234    1.406   .     A
C233   O108    1.387   .     S
C234   H78     1.082   .     S
O107   Fe23    1.804   .     S
O108   Fe23    1.822   .     S
C235   C236    1.398   .     A
C235   C240    1.394   .     A
C235   O109    1.382   .     S
C236   C237    1.408   .     A
C236   O110    1.394   .     S
C237   C238    1.406   .     A
C237   H79     1.082   .     S
C238   C239    1.377   .     A
C238   O111    1.387   .     S
C239   C240    1.392   .     A
C239   O112    1.375   .     S
C240   H80     1.083   .     S
O111   Fe24    1.821   .     S
O112   Fe24    1.804   .     S
Fe25   O5      1.811   1_556 S
Fe25   O6      1.810   1_546 S
Fe25   O48     1.811   1_545 S
Fe27   O18     1.811   1_655 S
Fe27   O35     1.811   1_554 S
Fe27   O36     1.810   1_654 S
Fe28   O24     1.811   1_665 S
Fe28   O42     1.810   1_665 S
C241   C242    1.400   .     A
C241   C246    1.400   .     A
C241   H81     1.082   .     S
C242   C243    1.394   .     A
C242   O113    1.387   .     S
C243   C244    1.400   .     A
C243   O114    1.388   .     S
C244   C245    1.400   .     A
C244   H82     1.082   .     S
C245   C246    1.394   .     A
C245   O115    1.387   .     S
C246   O116    1.388   .     S
C247   C248    1.400   .     A
C247   C252    1.400   .     A
C247   H83     1.082   .     S
C248   C249    1.394   .     A
C248   O117    1.388   .     S
C249   C250    1.400   .     A
C249   O118    1.387   .     S
C250   C251    1.400   .     A
C250   H84     1.082   .     S
C251   C252    1.394   .     A
C251   O119    1.388   .     S
C252   O120    1.387   .     S
C253   C254    1.400   .     A
C253   C258    1.400   .     A
C253   H85     1.082   .     S
C254   C255    1.394   .     A
C254   O121    1.388   .     S
C255   C256    1.400   .     A
C255   O122    1.387   .     S
C256   C257    1.400   .     A
C256   H86     1.082   .     S
C257   C258    1.394   .     A
C257   O123    1.388   .     S
C258   O124    1.387   .     S
C259   C260    1.400   .     A
C259   C264    1.400   .     A
C259   H87     1.082   .     S
C260   C261    1.394   .     A
C260   O125    1.387   .     S
C261   C262    1.400   .     A
C261   O126    1.388   .     S
C262   C263    1.400   .     A
C262   H88     1.082   .     S
C263   C264    1.394   .     A
C263   O127    1.387   .     S
C264   O128    1.388   .     S
