data_fog_Feoct_PcMN_spacer_DHBQ
_audit_creation_date              2023-08-06
_audit_creation_method            'Materials Studio'
_symmetry_space_group_name_H-M    'P1'
_symmetry_Int_Tables_number       1
_symmetry_cell_setting            triclinic
loop_
_symmetry_equiv_pos_as_xyz
  x,y,z
_cell_length_a                    57.4575
_cell_length_b                    57.4575
_cell_length_c                    73.8572
_cell_angle_alpha                 89.9958
_cell_angle_beta                  90.0035
_cell_angle_gamma                 119.9950
loop_
_atom_site_label
_atom_site_type_symbol
_atom_site_fract_x
_atom_site_fract_y
_atom_site_fract_z
_atom_site_U_iso_or_equiv
_atom_site_adp_type
_atom_site_occupancy
Fe1    Fe    0.44022   0.01229   0.01675   0.00000  Uiso   1.00
Fe2    Fe    0.01440   0.43811   0.01675   0.00000  Uiso   1.00
Fe3    Fe    0.58858   0.58647   0.01676   0.00000  Uiso   1.00
Fe4    Fe    0.58858   0.01229   0.01675   0.00000  Uiso   1.00
Fe5    Fe    0.01440   0.58647   0.01676   0.00000  Uiso   1.00
Fe6    Fe    0.44024   0.43813   0.01676   0.00000  Uiso   1.00
Fe7    Fe    0.10688   0.34562   0.35009   0.00000  Uiso   1.00
Fe8    Fe    0.68106   0.77144   0.35009   0.00000  Uiso   1.00
Fe9    Fe    0.25525   0.91981   0.35009   0.00000  Uiso   1.00
Fe10   Fe    0.25524   0.34562   0.35008   0.00000  Uiso   1.00
Fe11   Fe    0.68106   0.91980   0.35009   0.00000  Uiso   1.00
Fe12   Fe    0.10690   0.77146   0.35009   0.00000  Uiso   1.00
Fe13   Fe    0.77355   0.67896   0.68342   0.00000  Uiso   1.00
Fe14   Fe    0.34773   0.10478   0.68342   0.00000  Uiso   1.00
Fe15   Fe    0.92191   0.25314   0.68342   0.00000  Uiso   1.00
Fe16   Fe    0.92191   0.67896   0.68342   0.00000  Uiso   1.00
Fe17   Fe    0.34773   0.25313   0.68342   0.00000  Uiso   1.00
Fe18   Fe    0.77357   0.10479   0.68342   0.00000  Uiso   1.00
C1     C     0.98293   0.54788   0.58178   0.00000  Uiso   1.00
C2     C     0.97744   0.57106   0.58830   0.00000  Uiso   1.00
C3     C     0.97933   0.58996   0.57476   0.00000  Uiso   1.00
C4     C     0.98914   0.58692   0.55503   0.00000  Uiso   1.00
C5     C     0.99484   0.56616   0.55025   0.00000  Uiso   1.00
C6     C     0.99051   0.54573   0.56379   0.00000  Uiso   1.00
C7     C     0.99640   0.52519   0.55320   0.00000  Uiso   1.00
N1     N     0.00469   0.53266   0.53520   0.00000  Uiso   1.00
C8     C     0.00489   0.55707   0.53269   0.00000  Uiso   1.00
N2     N     0.01441   0.57211   0.51675   0.00000  Uiso   1.00
C9     C     0.02392   0.56658   0.50082   0.00000  Uiso   1.00
N3     N     0.02412   0.54237   0.49831   0.00000  Uiso   1.00
C10    C     0.03241   0.54320   0.48031   0.00000  Uiso   1.00
C11    C     0.03831   0.56963   0.46972   0.00000  Uiso   1.00
C12    C     0.03397   0.58573   0.48325   0.00000  Uiso   1.00
N4     N     0.02412   0.49193   0.49831   0.00000  Uiso   1.00
C13    C     0.03241   0.49940   0.48031   0.00000  Uiso   1.00
N5     N     0.03587   0.52303   0.47274   0.00000  Uiso   1.00
C14    C     0.03830   0.47887   0.46972   0.00000  Uiso   1.00
C15    C     0.03396   0.45843   0.48325   0.00000  Uiso   1.00
C16    C     0.02392   0.46753   0.50082   0.00000  Uiso   1.00
C17    C     0.03967   0.61219   0.47847   0.00000  Uiso   1.00
C18    C     0.04949   0.62504   0.45875   0.00000  Uiso   1.00
C19    C     0.05137   0.60803   0.44521   0.00000  Uiso   1.00
C20    C     0.04589   0.57937   0.45173   0.00000  Uiso   1.00
C21    C     0.03967   0.43767   0.47847   0.00000  Uiso   1.00
C22    C     0.04948   0.43463   0.45874   0.00000  Uiso   1.00
C23    C     0.05136   0.45353   0.44521   0.00000  Uiso   1.00
C24    C     0.04588   0.47671   0.45173   0.00000  Uiso   1.00
N6     N     0.00469   0.48222   0.53520   0.00000  Uiso   1.00
C25    C     0.00489   0.45801   0.53269   0.00000  Uiso   1.00
N7     N     0.01441   0.45248   0.51676   0.00000  Uiso   1.00
C26    C     0.99485   0.43887   0.55026   0.00000  Uiso   1.00
C27    C     0.99051   0.45497   0.56379   0.00000  Uiso   1.00
C28    C     0.99640   0.48140   0.55320   0.00000  Uiso   1.00
C29    C     0.98293   0.44523   0.58178   0.00000  Uiso   1.00
C30    C     0.97744   0.41657   0.58830   0.00000  Uiso   1.00
C31    C     0.97933   0.39955   0.57477   0.00000  Uiso   1.00
C32    C     0.98914   0.41241   0.55504   0.00000  Uiso   1.00
N8     N     0.99294   0.50156   0.56077   0.00000  Uiso   1.00
H1     H     0.98033   0.53270   0.59151   0.00000  Uiso   1.00
O1     O     0.97105   0.57572   0.60386   0.00000  Uiso   1.00
O2     O     0.97296   0.60680   0.58099   0.00000  Uiso   1.00
H2     H     0.99180   0.60155   0.54483   0.00000  Uiso   1.00
H3     H     0.03701   0.62415   0.48868   0.00000  Uiso   1.00
O3     O     0.05585   0.64825   0.45251   0.00000  Uiso   1.00
O4     O     0.05777   0.61909   0.42965   0.00000  Uiso   1.00
H4     H     0.04848   0.56678   0.44200   0.00000  Uiso   1.00
H5     H     0.03701   0.42304   0.48868   0.00000  Uiso   1.00
O5     O     0.05585   0.41779   0.45251   0.00000  Uiso   1.00
O6     O     0.05776   0.44886   0.42964   0.00000  Uiso   1.00
H6     H     0.04848   0.49190   0.44200   0.00000  Uiso   1.00
H7     H     0.98033   0.45782   0.59151   0.00000  Uiso   1.00
O7     O     0.97105   0.40551   0.60387   0.00000  Uiso   1.00
O8     O     0.97296   0.37634   0.58100   0.00000  Uiso   1.00
H8     H     0.99180   0.40044   0.54483   0.00000  Uiso   1.00
Ni1    Ni    0.01440   0.51229   0.51675   0.00000  Uiso   1.00
C33    C     0.44733   0.47670   0.45173   0.00000  Uiso   1.00
C34    C     0.41867   0.45352   0.44520   0.00000  Uiso   1.00
C35    C     0.40166   0.43463   0.45874   0.00000  Uiso   1.00
C36    C     0.41451   0.43767   0.47847   0.00000  Uiso   1.00
C37    C     0.44097   0.45842   0.48325   0.00000  Uiso   1.00
C38    C     0.45707   0.47886   0.46971   0.00000  Uiso   1.00
C39    C     0.48350   0.49939   0.48030   0.00000  Uiso   1.00
N9     N     0.48432   0.49193   0.49831   0.00000  Uiso   1.00
C40    C     0.46012   0.46752   0.50082   0.00000  Uiso   1.00
N10    N     0.45458   0.45248   0.51675   0.00000  Uiso   1.00
C41    C     0.46963   0.45801   0.53269   0.00000  Uiso   1.00
N11    N     0.49404   0.48221   0.53519   0.00000  Uiso   1.00
C42    C     0.50150   0.48139   0.55320   0.00000  Uiso   1.00
C43    C     0.48097   0.45496   0.56379   0.00000  Uiso   1.00
C44    C     0.46053   0.43886   0.55025   0.00000  Uiso   1.00
N12    N     0.54447   0.53265   0.53520   0.00000  Uiso   1.00
C45    C     0.54529   0.52518   0.55320   0.00000  Uiso   1.00
N13    N     0.52513   0.50155   0.56077   0.00000  Uiso   1.00
C46    C     0.57172   0.54572   0.56379   0.00000  Uiso   1.00
C47    C     0.58782   0.56615   0.55025   0.00000  Uiso   1.00
C48    C     0.56867   0.55705   0.53269   0.00000  Uiso   1.00
C49    C     0.43978   0.41241   0.55504   0.00000  Uiso   1.00
C50    C     0.43674   0.39955   0.57477   0.00000  Uiso   1.00
C51    C     0.45563   0.41656   0.58830   0.00000  Uiso   1.00
C52    C     0.47881   0.44522   0.58178   0.00000  Uiso   1.00
C53    C     0.61428   0.58691   0.55504   0.00000  Uiso   1.00
C54    C     0.62713   0.58995   0.57476   0.00000  Uiso   1.00
C55    C     0.61012   0.57105   0.58830   0.00000  Uiso   1.00
C56    C     0.58146   0.54787   0.58178   0.00000  Uiso   1.00
N14    N     0.53476   0.54236   0.49831   0.00000  Uiso   1.00
C57    C     0.55916   0.56656   0.50082   0.00000  Uiso   1.00
N15    N     0.57421   0.57210   0.51675   0.00000  Uiso   1.00
C58    C     0.56826   0.58571   0.48325   0.00000  Uiso   1.00
C59    C     0.54782   0.56961   0.46971   0.00000  Uiso   1.00
C60    C     0.52729   0.54318   0.48030   0.00000  Uiso   1.00
C61    C     0.54998   0.57935   0.45172   0.00000  Uiso   1.00
C62    C     0.57316   0.60801   0.44520   0.00000  Uiso   1.00
C63    C     0.59206   0.62502   0.45874   0.00000  Uiso   1.00
C64    C     0.58901   0.61217   0.47847   0.00000  Uiso   1.00
N16    N     0.50366   0.52302   0.47274   0.00000  Uiso   1.00
H9     H     0.45992   0.49189   0.44200   0.00000  Uiso   1.00
O9     O     0.40761   0.44886   0.42964   0.00000  Uiso   1.00
O10    O     0.37845   0.41779   0.45251   0.00000  Uiso   1.00
H10    H     0.40255   0.42304   0.48868   0.00000  Uiso   1.00
H11    H     0.42515   0.40044   0.54483   0.00000  Uiso   1.00
O11    O     0.41990   0.37634   0.58100   0.00000  Uiso   1.00
O12    O     0.45097   0.40550   0.60387   0.00000  Uiso   1.00
H12    H     0.49400   0.45781   0.59151   0.00000  Uiso   1.00
H13    H     0.62624   0.60153   0.54483   0.00000  Uiso   1.00
O13    O     0.65034   0.60679   0.58100   0.00000  Uiso   1.00
O14    O     0.62118   0.57572   0.60386   0.00000  Uiso   1.00
H14    H     0.56887   0.53269   0.59151   0.00000  Uiso   1.00
H15    H     0.53480   0.56676   0.44200   0.00000  Uiso   1.00
O15    O     0.57782   0.61907   0.42964   0.00000  Uiso   1.00
O16    O     0.60890   0.64823   0.45251   0.00000  Uiso   1.00
H16    H     0.60364   0.62414   0.48867   0.00000  Uiso   1.00
Ni2    Ni    0.51440   0.51229   0.51675   0.00000  Uiso   1.00
C65    C     0.58147   0.04377   0.58178   0.00000  Uiso   1.00
C66    C     0.61014   0.04925   0.58831   0.00000  Uiso   1.00
C67    C     0.62715   0.04737   0.57477   0.00000  Uiso   1.00
C68    C     0.61429   0.03756   0.55504   0.00000  Uiso   1.00
C69    C     0.58783   0.03185   0.55026   0.00000  Uiso   1.00
C70    C     0.57173   0.03619   0.56380   0.00000  Uiso   1.00
C71    C     0.54530   0.03029   0.55321   0.00000  Uiso   1.00
N17    N     0.54448   0.02200   0.53520   0.00000  Uiso   1.00
C72    C     0.56869   0.02180   0.53269   0.00000  Uiso   1.00
N18    N     0.57422   0.01229   0.51676   0.00000  Uiso   1.00
C73    C     0.55917   0.00278   0.50083   0.00000  Uiso   1.00
N19    N     0.53477   0.00258   0.49832   0.00000  Uiso   1.00
C74    C     0.52730   0.99429   0.48031   0.00000  Uiso   1.00
C75    C     0.54783   0.98839   0.46972   0.00000  Uiso   1.00
C76    C     0.56827   0.99273   0.48326   0.00000  Uiso   1.00
N20    N     0.48433   0.00258   0.49832   0.00000  Uiso   1.00
C77    C     0.48351   0.99429   0.48031   0.00000  Uiso   1.00
N21    N     0.50367   0.99082   0.47274   0.00000  Uiso   1.00
C78    C     0.45708   0.98839   0.46972   0.00000  Uiso   1.00
C79    C     0.44098   0.99273   0.48326   0.00000  Uiso   1.00
C80    C     0.46012   0.00278   0.50083   0.00000  Uiso   1.00
C81    C     0.58902   0.98702   0.47848   0.00000  Uiso   1.00
C82    C     0.59207   0.97721   0.45875   0.00000  Uiso   1.00
C83    C     0.57317   0.97533   0.44521   0.00000  Uiso   1.00
C84    C     0.54999   0.98081   0.45173   0.00000  Uiso   1.00
C85    C     0.41452   0.98703   0.47848   0.00000  Uiso   1.00
C86    C     0.40166   0.97722   0.45875   0.00000  Uiso   1.00
C87    C     0.41867   0.97533   0.44521   0.00000  Uiso   1.00
C88    C     0.44734   0.98081   0.45173   0.00000  Uiso   1.00
N22    N     0.49404   0.02200   0.53520   0.00000  Uiso   1.00
C89    C     0.46964   0.02180   0.53269   0.00000  Uiso   1.00
N23    N     0.45459   0.01229   0.51676   0.00000  Uiso   1.00
C90    C     0.46054   0.03185   0.55026   0.00000  Uiso   1.00
C91    C     0.48097   0.03619   0.56380   0.00000  Uiso   1.00
C92    C     0.50151   0.03029   0.55321   0.00000  Uiso   1.00
C93    C     0.47882   0.04377   0.58178   0.00000  Uiso   1.00
C94    C     0.45564   0.04925   0.58831   0.00000  Uiso   1.00
C95    C     0.43674   0.04737   0.57477   0.00000  Uiso   1.00
C96    C     0.43978   0.03756   0.55504   0.00000  Uiso   1.00
N24    N     0.52514   0.03376   0.56077   0.00000  Uiso   1.00
H17    H     0.56888   0.04636   0.59151   0.00000  Uiso   1.00
O17    O     0.62119   0.05565   0.60387   0.00000  Uiso   1.00
O18    O     0.65036   0.05374   0.58100   0.00000  Uiso   1.00
H18    H     0.62626   0.03490   0.54484   0.00000  Uiso   1.00
H19    H     0.60366   0.98968   0.48868   0.00000  Uiso   1.00
O19    O     0.60891   0.97084   0.45252   0.00000  Uiso   1.00
O20    O     0.57783   0.96893   0.42965   0.00000  Uiso   1.00
H20    H     0.53480   0.97822   0.44201   0.00000  Uiso   1.00
H21    H     0.40255   0.98969   0.48868   0.00000  Uiso   1.00
O21    O     0.37845   0.97085   0.45252   0.00000  Uiso   1.00
O22    O     0.40762   0.96894   0.42965   0.00000  Uiso   1.00
H22    H     0.45993   0.97822   0.44201   0.00000  Uiso   1.00
H23    H     0.49400   0.04636   0.59151   0.00000  Uiso   1.00
O23    O     0.45097   0.05565   0.60387   0.00000  Uiso   1.00
O24    O     0.41990   0.05373   0.58100   0.00000  Uiso   1.00
H24    H     0.42515   0.03489   0.54484   0.00000  Uiso   1.00
Ni3    Ni    0.51440   0.01229   0.51676   0.00000  Uiso   1.00
C97    C     0.71255   0.81004   0.78506   0.00000  Uiso   1.00
C98    C     0.71803   0.78686   0.77854   0.00000  Uiso   1.00
C99    C     0.71615   0.76796   0.79208   0.00000  Uiso   1.00
C100   C     0.70634   0.77101   0.81181   0.00000  Uiso   1.00
C101   C     0.70063   0.79176   0.81659   0.00000  Uiso   1.00
C102   C     0.70497   0.81220   0.80305   0.00000  Uiso   1.00
C103   C     0.69908   0.83274   0.81364   0.00000  Uiso   1.00
N25    N     0.69079   0.82527   0.83165   0.00000  Uiso   1.00
C104   C     0.69059   0.80086   0.83416   0.00000  Uiso   1.00
N26    N     0.68108   0.78581   0.85009   0.00000  Uiso   1.00
C105   C     0.67156   0.79135   0.86602   0.00000  Uiso   1.00
N27    N     0.67136   0.81556   0.86853   0.00000  Uiso   1.00
C106   C     0.66307   0.81473   0.88654   0.00000  Uiso   1.00
C107   C     0.65718   0.78830   0.89713   0.00000  Uiso   1.00
C108   C     0.66152   0.77220   0.88359   0.00000  Uiso   1.00
N28    N     0.67136   0.86599   0.86853   0.00000  Uiso   1.00
C109   C     0.66307   0.85853   0.88654   0.00000  Uiso   1.00
N29    N     0.65961   0.83490   0.89410   0.00000  Uiso   1.00
C110   C     0.65718   0.87906   0.89713   0.00000  Uiso   1.00
C111   C     0.66152   0.89950   0.88359   0.00000  Uiso   1.00
C112   C     0.67156   0.89040   0.86602   0.00000  Uiso   1.00
C113   C     0.65581   0.74574   0.88837   0.00000  Uiso   1.00
C114   C     0.64600   0.73289   0.90810   0.00000  Uiso   1.00
C115   C     0.64411   0.74990   0.92164   0.00000  Uiso   1.00
C116   C     0.64960   0.77856   0.91512   0.00000  Uiso   1.00
C117   C     0.65581   0.92025   0.88837   0.00000  Uiso   1.00
C118   C     0.64600   0.92329   0.90810   0.00000  Uiso   1.00
C119   C     0.64411   0.90440   0.92164   0.00000  Uiso   1.00
C120   C     0.64960   0.88122   0.91511   0.00000  Uiso   1.00
N30    N     0.69079   0.87571   0.83165   0.00000  Uiso   1.00
C121   C     0.69059   0.89991   0.83416   0.00000  Uiso   1.00
N31    N     0.68108   0.90545   0.85009   0.00000  Uiso   1.00
C122   C     0.70064   0.91906   0.81659   0.00000  Uiso   1.00
C123   C     0.70498   0.90296   0.80305   0.00000  Uiso   1.00
C124   C     0.69908   0.87653   0.81364   0.00000  Uiso   1.00
C125   C     0.71256   0.91270   0.78507   0.00000  Uiso   1.00
C126   C     0.71804   0.94136   0.77854   0.00000  Uiso   1.00
C127   C     0.71616   0.95837   0.79208   0.00000  Uiso   1.00
C128   C     0.70634   0.94552   0.81181   0.00000  Uiso   1.00
N32    N     0.70254   0.85637   0.80608   0.00000  Uiso   1.00
H25    H     0.71515   0.82523   0.77534   0.00000  Uiso   1.00
O25    O     0.72443   0.78220   0.76298   0.00000  Uiso   1.00
O26    O     0.72252   0.75112   0.78585   0.00000  Uiso   1.00
H26    H     0.70368   0.75638   0.82201   0.00000  Uiso   1.00
H27    H     0.65847   0.73378   0.87817   0.00000  Uiso   1.00
O27    O     0.63963   0.70968   0.91433   0.00000  Uiso   1.00
O28    O     0.63772   0.73884   0.93720   0.00000  Uiso   1.00
H28    H     0.64700   0.79116   0.92484   0.00000  Uiso   1.00
H29    H     0.65847   0.93488   0.87817   0.00000  Uiso   1.00
O29    O     0.63963   0.94013   0.91433   0.00000  Uiso   1.00
O30    O     0.63772   0.90906   0.93720   0.00000  Uiso   1.00
H30    H     0.64700   0.86603   0.92484   0.00000  Uiso   1.00
H31    H     0.71515   0.90011   0.77534   0.00000  Uiso   1.00
O31    O     0.72444   0.95242   0.76298   0.00000  Uiso   1.00
O32    O     0.72252   0.98158   0.78585   0.00000  Uiso   1.00
H32    H     0.70368   0.95749   0.82201   0.00000  Uiso   1.00
Ni4    Ni    0.68107   0.84563   0.85009   0.00000  Uiso   1.00
C129   C     0.11400   0.81004   0.78506   0.00000  Uiso   1.00
C130   C     0.08533   0.78685   0.77853   0.00000  Uiso   1.00
C131   C     0.06832   0.76796   0.79207   0.00000  Uiso   1.00
C132   C     0.08118   0.77100   0.81180   0.00000  Uiso   1.00
C133   C     0.10764   0.79176   0.81658   0.00000  Uiso   1.00
C134   C     0.12374   0.81219   0.80304   0.00000  Uiso   1.00
C135   C     0.15016   0.83273   0.81364   0.00000  Uiso   1.00
N33    N     0.15099   0.82526   0.83164   0.00000  Uiso   1.00
C136   C     0.12678   0.80085   0.83415   0.00000  Uiso   1.00
N34    N     0.12125   0.78581   0.85009   0.00000  Uiso   1.00
C137   C     0.13630   0.79134   0.86602   0.00000  Uiso   1.00
N35    N     0.16070   0.81554   0.86853   0.00000  Uiso   1.00
C138   C     0.16817   0.81472   0.88653   0.00000  Uiso   1.00
C139   C     0.14763   0.78829   0.89713   0.00000  Uiso   1.00
C140   C     0.12720   0.77219   0.88359   0.00000  Uiso   1.00
N36    N     0.21113   0.86598   0.86853   0.00000  Uiso   1.00
C141   C     0.21196   0.85851   0.88653   0.00000  Uiso   1.00
N37    N     0.19180   0.83488   0.89410   0.00000  Uiso   1.00
C142   C     0.23839   0.87905   0.89713   0.00000  Uiso   1.00
C143   C     0.25448   0.89948   0.88359   0.00000  Uiso   1.00
C144   C     0.23534   0.89038   0.86602   0.00000  Uiso   1.00
C145   C     0.10644   0.74574   0.88837   0.00000  Uiso   1.00
C146   C     0.10340   0.73288   0.90810   0.00000  Uiso   1.00
C147   C     0.12230   0.74989   0.92164   0.00000  Uiso   1.00
C148   C     0.14548   0.77855   0.91511   0.00000  Uiso   1.00
C149   C     0.28094   0.92024   0.88837   0.00000  Uiso   1.00
C150   C     0.29380   0.92328   0.90810   0.00000  Uiso   1.00
C151   C     0.27679   0.90439   0.92164   0.00000  Uiso   1.00
C152   C     0.24813   0.88120   0.91511   0.00000  Uiso   1.00
N38    N     0.20142   0.87569   0.83164   0.00000  Uiso   1.00
C153   C     0.22583   0.89990   0.83415   0.00000  Uiso   1.00
N39    N     0.24087   0.90543   0.85008   0.00000  Uiso   1.00
C154   C     0.23493   0.91904   0.81658   0.00000  Uiso   1.00
C155   C     0.21449   0.90294   0.80304   0.00000  Uiso   1.00
C156   C     0.19396   0.87651   0.81364   0.00000  Uiso   1.00
C157   C     0.21665   0.91268   0.78506   0.00000  Uiso   1.00
C158   C     0.23983   0.94135   0.77853   0.00000  Uiso   1.00
C159   C     0.25872   0.95836   0.79207   0.00000  Uiso   1.00
C160   C     0.25568   0.94550   0.81180   0.00000  Uiso   1.00
N40    N     0.17033   0.85635   0.80607   0.00000  Uiso   1.00
H33    H     0.12659   0.82522   0.77533   0.00000  Uiso   1.00
O33    O     0.07428   0.78219   0.76297   0.00000  Uiso   1.00
O34    O     0.04512   0.75112   0.78584   0.00000  Uiso   1.00
H34    H     0.06921   0.75637   0.82201   0.00000  Uiso   1.00
H35    H     0.09182   0.73377   0.87816   0.00000  Uiso   1.00
O35    O     0.08656   0.70967   0.91433   0.00000  Uiso   1.00
O36    O     0.11763   0.73883   0.93720   0.00000  Uiso   1.00
H36    H     0.16066   0.79114   0.92484   0.00000  Uiso   1.00
H37    H     0.29291   0.93486   0.87816   0.00000  Uiso   1.00
O37    O     0.31701   0.94012   0.91433   0.00000  Uiso   1.00
O38    O     0.28785   0.90905   0.93720   0.00000  Uiso   1.00
H38    H     0.23554   0.86602   0.92484   0.00000  Uiso   1.00
H39    H     0.20146   0.90009   0.77533   0.00000  Uiso   1.00
O39    O     0.24449   0.95241   0.76297   0.00000  Uiso   1.00
O40    O     0.27556   0.98156   0.78584   0.00000  Uiso   1.00
H40    H     0.27031   0.95747   0.82201   0.00000  Uiso   1.00
Ni5    Ni    0.18106   0.84562   0.85008   0.00000  Uiso   1.00
C161   C     0.24814   0.37711   0.91512   0.00000  Uiso   1.00
C162   C     0.27680   0.38259   0.92164   0.00000  Uiso   1.00
C163   C     0.29382   0.38071   0.90810   0.00000  Uiso   1.00
C164   C     0.28096   0.37089   0.88837   0.00000  Uiso   1.00
C165   C     0.25450   0.36519   0.88359   0.00000  Uiso   1.00
C166   C     0.23840   0.36953   0.89713   0.00000  Uiso   1.00
C167   C     0.21197   0.36363   0.88654   0.00000  Uiso   1.00
N41    N     0.21115   0.35534   0.86853   0.00000  Uiso   1.00
C168   C     0.23535   0.35514   0.86602   0.00000  Uiso   1.00
N42    N     0.24089   0.34563   0.85009   0.00000  Uiso   1.00
C169   C     0.22584   0.33611   0.83416   0.00000  Uiso   1.00
N43    N     0.20143   0.33591   0.83165   0.00000  Uiso   1.00
C170   C     0.19397   0.32762   0.81364   0.00000  Uiso   1.00
C171   C     0.21450   0.32173   0.80305   0.00000  Uiso   1.00
C172   C     0.23494   0.32607   0.81659   0.00000  Uiso   1.00
N44    N     0.15099   0.33591   0.83165   0.00000  Uiso   1.00
C173   C     0.15017   0.32762   0.81364   0.00000  Uiso   1.00
N45    N     0.17034   0.32416   0.80608   0.00000  Uiso   1.00
C174   C     0.12374   0.32173   0.80305   0.00000  Uiso   1.00
C175   C     0.10764   0.32606   0.81659   0.00000  Uiso   1.00
C176   C     0.12679   0.33611   0.83416   0.00000  Uiso   1.00
C177   C     0.25569   0.32036   0.81181   0.00000  Uiso   1.00
C178   C     0.25873   0.31055   0.79208   0.00000  Uiso   1.00
C179   C     0.23984   0.30867   0.77854   0.00000  Uiso   1.00
C180   C     0.21666   0.31415   0.78507   0.00000  Uiso   1.00
C181   C     0.08118   0.32036   0.81181   0.00000  Uiso   1.00
C182   C     0.06833   0.31055   0.79208   0.00000  Uiso   1.00
C183   C     0.08534   0.30866   0.77854   0.00000  Uiso   1.00
C184   C     0.11400   0.31415   0.78507   0.00000  Uiso   1.00
N46    N     0.16071   0.35534   0.86853   0.00000  Uiso   1.00
C185   C     0.13630   0.35514   0.86602   0.00000  Uiso   1.00
N47    N     0.12125   0.34562   0.85009   0.00000  Uiso   1.00
C186   C     0.12720   0.36518   0.88359   0.00000  Uiso   1.00
C187   C     0.14764   0.36952   0.89713   0.00000  Uiso   1.00
C188   C     0.16818   0.36363   0.88654   0.00000  Uiso   1.00
C189   C     0.14548   0.37710   0.91512   0.00000  Uiso   1.00
C190   C     0.12230   0.38258   0.92164   0.00000  Uiso   1.00
C191   C     0.10341   0.38070   0.90810   0.00000  Uiso   1.00
C192   C     0.10645   0.37089   0.88837   0.00000  Uiso   1.00
N48    N     0.19181   0.36709   0.89411   0.00000  Uiso   1.00
H41    H     0.23555   0.37970   0.92484   0.00000  Uiso   1.00
O41    O     0.28786   0.38899   0.93720   0.00000  Uiso   1.00
O42    O     0.31703   0.38708   0.91433   0.00000  Uiso   1.00
H42    H     0.29293   0.36823   0.87817   0.00000  Uiso   1.00
H43    H     0.27032   0.32302   0.82201   0.00000  Uiso   1.00
O43    O     0.27558   0.30418   0.78585   0.00000  Uiso   1.00
O44    O     0.24450   0.30227   0.76298   0.00000  Uiso   1.00
H44    H     0.20147   0.31155   0.77534   0.00000  Uiso   1.00
H45    H     0.06922   0.32302   0.82201   0.00000  Uiso   1.00
O45    O     0.04512   0.30418   0.78585   0.00000  Uiso   1.00
O46    O     0.07428   0.30227   0.76298   0.00000  Uiso   1.00
H46    H     0.12659   0.31155   0.77534   0.00000  Uiso   1.00
H47    H     0.16067   0.37970   0.92485   0.00000  Uiso   1.00
O47    O     0.11764   0.38898   0.93720   0.00000  Uiso   1.00
O48    O     0.08656   0.38707   0.91433   0.00000  Uiso   1.00
H48    H     0.09182   0.36823   0.87817   0.00000  Uiso   1.00
Ni6    Ni    0.18107   0.34562   0.85009   0.00000  Uiso   1.00
C193   C     0.37922   0.24603   0.11839   0.00000  Uiso   1.00
C194   C     0.38470   0.27470   0.11187   0.00000  Uiso   1.00
C195   C     0.38282   0.29171   0.12541   0.00000  Uiso   1.00
C196   C     0.37300   0.27885   0.14514   0.00000  Uiso   1.00
C197   C     0.36730   0.25239   0.14992   0.00000  Uiso   1.00
C198   C     0.37164   0.23629   0.13638   0.00000  Uiso   1.00
C199   C     0.36574   0.20986   0.14697   0.00000  Uiso   1.00
N49    N     0.35745   0.20904   0.16498   0.00000  Uiso   1.00
C200   C     0.35725   0.23324   0.16749   0.00000  Uiso   1.00
N50    N     0.34774   0.23878   0.18342   0.00000  Uiso   1.00
C201   C     0.33822   0.22373   0.19935   0.00000  Uiso   1.00
N51    N     0.33802   0.19932   0.20186   0.00000  Uiso   1.00
C202   C     0.32974   0.19186   0.21987   0.00000  Uiso   1.00
C203   C     0.32384   0.21239   0.23046   0.00000  Uiso   1.00
C204   C     0.32818   0.23283   0.21692   0.00000  Uiso   1.00
N52    N     0.33802   0.14889   0.20186   0.00000  Uiso   1.00
C205   C     0.32973   0.14806   0.21987   0.00000  Uiso   1.00
N53    N     0.32627   0.16823   0.22743   0.00000  Uiso   1.00
C206   C     0.32384   0.12163   0.23046   0.00000  Uiso   1.00
C207   C     0.32818   0.10553   0.21692   0.00000  Uiso   1.00
C208   C     0.33822   0.12468   0.19935   0.00000  Uiso   1.00
C209   C     0.32247   0.25358   0.22170   0.00000  Uiso   1.00
C210   C     0.31266   0.25663   0.24143   0.00000  Uiso   1.00
C211   C     0.31078   0.23773   0.25497   0.00000  Uiso   1.00
C212   C     0.31626   0.21455   0.24844   0.00000  Uiso   1.00
C213   C     0.32247   0.07907   0.22170   0.00000  Uiso   1.00
C214   C     0.31266   0.06622   0.24143   0.00000  Uiso   1.00
C215   C     0.31078   0.08323   0.25497   0.00000  Uiso   1.00
C216   C     0.31626   0.11190   0.24845   0.00000  Uiso   1.00
N54    N     0.35745   0.15860   0.16498   0.00000  Uiso   1.00
C217   C     0.35725   0.13419   0.16749   0.00000  Uiso   1.00
N55    N     0.34774   0.11915   0.18342   0.00000  Uiso   1.00
C218   C     0.36730   0.12509   0.14992   0.00000  Uiso   1.00
C219   C     0.37163   0.14553   0.13638   0.00000  Uiso   1.00
C220   C     0.36574   0.16607   0.14697   0.00000  Uiso   1.00
C221   C     0.37921   0.14338   0.11839   0.00000  Uiso   1.00
C222   C     0.38469   0.12019   0.11187   0.00000  Uiso   1.00
C223   C     0.38281   0.10130   0.12541   0.00000  Uiso   1.00
C224   C     0.37300   0.10434   0.14514   0.00000  Uiso   1.00
N56    N     0.36920   0.18970   0.13940   0.00000  Uiso   1.00
H49    H     0.38181   0.23344   0.10867   0.00000  Uiso   1.00
O49    O     0.39110   0.28575   0.09631   0.00000  Uiso   1.00
O50    O     0.38919   0.31492   0.11918   0.00000  Uiso   1.00
H50    H     0.37034   0.29082   0.15534   0.00000  Uiso   1.00
H51    H     0.32513   0.26821   0.21150   0.00000  Uiso   1.00
O51    O     0.30629   0.27347   0.24766   0.00000  Uiso   1.00
O52    O     0.30438   0.24239   0.27053   0.00000  Uiso   1.00
H52    H     0.31366   0.19936   0.25817   0.00000  Uiso   1.00
H53    H     0.32513   0.06711   0.21150   0.00000  Uiso   1.00
O53    O     0.30629   0.04301   0.24766   0.00000  Uiso   1.00
O54    O     0.30438   0.07217   0.27053   0.00000  Uiso   1.00
H54    H     0.31366   0.12449   0.25817   0.00000  Uiso   1.00
H55    H     0.38181   0.15856   0.10867   0.00000  Uiso   1.00
O55    O     0.39109   0.11553   0.09631   0.00000  Uiso   1.00
O56    O     0.38918   0.08445   0.11918   0.00000  Uiso   1.00
H56    H     0.37034   0.08971   0.15534   0.00000  Uiso   1.00
Ni7    Ni    0.34773   0.17896   0.18342   0.00000  Uiso   1.00
C225   C     0.78066   0.14337   0.11839   0.00000  Uiso   1.00
C226   C     0.75200   0.12019   0.11187   0.00000  Uiso   1.00
C227   C     0.73499   0.10129   0.12541   0.00000  Uiso   1.00
C228   C     0.74785   0.10434   0.14514   0.00000  Uiso   1.00
C229   C     0.77431   0.12509   0.14992   0.00000  Uiso   1.00
C230   C     0.79040   0.14553   0.13638   0.00000  Uiso   1.00
C231   C     0.81683   0.16606   0.14697   0.00000  Uiso   1.00
N57    N     0.81765   0.15859   0.16498   0.00000  Uiso   1.00
C232   C     0.79345   0.13419   0.16749   0.00000  Uiso   1.00
N58    N     0.78792   0.11914   0.18342   0.00000  Uiso   1.00
C233   C     0.80296   0.12467   0.19935   0.00000  Uiso   1.00
N59    N     0.82737   0.14888   0.20186   0.00000  Uiso   1.00
C234   C     0.83484   0.14805   0.21987   0.00000  Uiso   1.00
C235   C     0.81430   0.12162   0.23046   0.00000  Uiso   1.00
C236   C     0.79387   0.10553   0.21692   0.00000  Uiso   1.00
N60    N     0.87780   0.19931   0.20186   0.00000  Uiso   1.00
C237   C     0.87862   0.19185   0.21987   0.00000  Uiso   1.00
N61    N     0.85846   0.16822   0.22744   0.00000  Uiso   1.00
C238   C     0.90505   0.21238   0.23046   0.00000  Uiso   1.00
C239   C     0.92115   0.23281   0.21692   0.00000  Uiso   1.00
C240   C     0.90201   0.22372   0.19935   0.00000  Uiso   1.00
C241   C     0.77311   0.07907   0.22170   0.00000  Uiso   1.00
C242   C     0.77007   0.06621   0.24143   0.00000  Uiso   1.00
C243   C     0.78896   0.08322   0.25497   0.00000  Uiso   1.00
C244   C     0.81214   0.11189   0.24845   0.00000  Uiso   1.00
C245   C     0.94761   0.25357   0.22170   0.00000  Uiso   1.00
C246   C     0.96046   0.25661   0.24143   0.00000  Uiso   1.00
C247   C     0.94346   0.23772   0.25497   0.00000  Uiso   1.00
C248   C     0.91479   0.21454   0.24845   0.00000  Uiso   1.00
N62    N     0.86809   0.20902   0.16498   0.00000  Uiso   1.00
C249   C     0.89250   0.23323   0.16749   0.00000  Uiso   1.00
N63    N     0.90754   0.23876   0.18342   0.00000  Uiso   1.00
C250   C     0.90159   0.25237   0.14992   0.00000  Uiso   1.00
C251   C     0.88116   0.23628   0.13638   0.00000  Uiso   1.00
C252   C     0.86062   0.20985   0.14697   0.00000  Uiso   1.00
C253   C     0.88331   0.24602   0.11839   0.00000  Uiso   1.00
C254   C     0.90650   0.27468   0.11187   0.00000  Uiso   1.00
C255   C     0.92539   0.29169   0.12541   0.00000  Uiso   1.00
C256   C     0.92235   0.27883   0.14514   0.00000  Uiso   1.00
N64    N     0.83700   0.18969   0.13940   0.00000  Uiso   1.00
H57    H     0.79325   0.15855   0.10866   0.00000  Uiso   1.00
O57    O     0.74094   0.11553   0.09631   0.00000  Uiso   1.00
O58    O     0.71178   0.08445   0.11918   0.00000  Uiso   1.00
H58    H     0.73588   0.08971   0.15534   0.00000  Uiso   1.00
H59    H     0.75848   0.06710   0.21150   0.00000  Uiso   1.00
O59    O     0.75323   0.04301   0.24766   0.00000  Uiso   1.00
O60    O     0.78430   0.07217   0.27053   0.00000  Uiso   1.00
H60    H     0.82733   0.12447   0.25818   0.00000  Uiso   1.00
H61    H     0.95958   0.26820   0.21150   0.00000  Uiso   1.00
O61    O     0.98367   0.27345   0.24766   0.00000  Uiso   1.00
O62    O     0.95451   0.24238   0.27053   0.00000  Uiso   1.00
H62    H     0.90220   0.19935   0.25818   0.00000  Uiso   1.00
H63    H     0.86813   0.23343   0.10866   0.00000  Uiso   1.00
O63    O     0.91116   0.28574   0.09631   0.00000  Uiso   1.00
O64    O     0.94223   0.31490   0.11918   0.00000  Uiso   1.00
H64    H     0.93697   0.29080   0.15534   0.00000  Uiso   1.00
Ni8    Ni    0.84773   0.17895   0.18342   0.00000  Uiso   1.00
C257   C     0.81215   0.71044   0.24845   0.00000  Uiso   1.00
C258   C     0.78897   0.71592   0.25497   0.00000  Uiso   1.00
C259   C     0.77007   0.71404   0.24143   0.00000  Uiso   1.00
C260   C     0.77312   0.70423   0.22170   0.00000  Uiso   1.00
C261   C     0.79387   0.69852   0.21692   0.00000  Uiso   1.00
C262   C     0.81431   0.70286   0.23046   0.00000  Uiso   1.00
C263   C     0.83485   0.69697   0.21987   0.00000  Uiso   1.00
N65    N     0.82738   0.68868   0.20186   0.00000  Uiso   1.00
C264   C     0.80297   0.68848   0.19935   0.00000  Uiso   1.00
N66    N     0.78792   0.67896   0.18342   0.00000  Uiso   1.00
C265   C     0.79346   0.66945   0.16749   0.00000  Uiso   1.00
N67    N     0.81766   0.66925   0.16498   0.00000  Uiso   1.00
C266   C     0.81684   0.66096   0.14698   0.00000  Uiso   1.00
C267   C     0.79041   0.65507   0.13638   0.00000  Uiso   1.00
C268   C     0.77431   0.65940   0.14992   0.00000  Uiso   1.00
N68    N     0.86810   0.66925   0.16498   0.00000  Uiso   1.00
C269   C     0.86064   0.66096   0.14698   0.00000  Uiso   1.00
N69    N     0.83701   0.65750   0.13941   0.00000  Uiso   1.00
C270   C     0.88117   0.65507   0.13638   0.00000  Uiso   1.00
C271   C     0.90161   0.65941   0.14992   0.00000  Uiso   1.00
C272   C     0.89251   0.66945   0.16749   0.00000  Uiso   1.00
C273   C     0.74785   0.65370   0.14514   0.00000  Uiso   1.00
C274   C     0.73500   0.64389   0.12541   0.00000  Uiso   1.00
C275   C     0.75201   0.64200   0.11187   0.00000  Uiso   1.00
C276   C     0.78067   0.64749   0.11840   0.00000  Uiso   1.00
C277   C     0.92236   0.65370   0.14514   0.00000  Uiso   1.00
C278   C     0.92540   0.64389   0.12541   0.00000  Uiso   1.00
C279   C     0.90651   0.64200   0.11187   0.00000  Uiso   1.00
C280   C     0.88333   0.64749   0.11840   0.00000  Uiso   1.00
N70    N     0.87782   0.68868   0.20186   0.00000  Uiso   1.00
C281   C     0.90202   0.68848   0.19935   0.00000  Uiso   1.00
N71    N     0.90756   0.67897   0.18342   0.00000  Uiso   1.00
C282   C     0.92117   0.69853   0.21692   0.00000  Uiso   1.00
C283   C     0.90507   0.70287   0.23046   0.00000  Uiso   1.00
C284   C     0.87864   0.69697   0.21987   0.00000  Uiso   1.00
C285   C     0.91481   0.71045   0.24845   0.00000  Uiso   1.00
C286   C     0.94347   0.71593   0.25497   0.00000  Uiso   1.00
C287   C     0.96048   0.71405   0.24143   0.00000  Uiso   1.00
C288   C     0.94763   0.70423   0.22170   0.00000  Uiso   1.00
N72    N     0.85848   0.70043   0.22744   0.00000  Uiso   1.00
H65    H     0.82734   0.71304   0.25818   0.00000  Uiso   1.00
O65    O     0.78431   0.72232   0.27053   0.00000  Uiso   1.00
O66    O     0.75323   0.72041   0.24766   0.00000  Uiso   1.00
H66    H     0.75849   0.70157   0.21150   0.00000  Uiso   1.00
H67    H     0.73588   0.65636   0.15535   0.00000  Uiso   1.00
O67    O     0.71179   0.63752   0.11918   0.00000  Uiso   1.00
O68    O     0.74095   0.63561   0.09631   0.00000  Uiso   1.00
H68    H     0.79326   0.64489   0.10867   0.00000  Uiso   1.00
H69    H     0.93699   0.65636   0.15535   0.00000  Uiso   1.00
O69    O     0.94224   0.63752   0.11918   0.00000  Uiso   1.00
O70    O     0.91117   0.63561   0.09631   0.00000  Uiso   1.00
H70    H     0.86814   0.64489   0.10867   0.00000  Uiso   1.00
H71    H     0.90222   0.71304   0.25818   0.00000  Uiso   1.00
O71    O     0.95453   0.72233   0.27053   0.00000  Uiso   1.00
O72    O     0.98369   0.72042   0.24766   0.00000  Uiso   1.00
H72    H     0.95960   0.70157   0.21150   0.00000  Uiso   1.00
Ni9    Ni    0.84774   0.67896   0.18342   0.00000  Uiso   1.00
C289   C     0.50013   0.98375   0.01588   0.00000  Uiso   1.00
C290   C     0.48373   0.99771   0.01631   0.00000  Uiso   1.00
C291   C     0.49831   0.02687   0.01720   0.00000  Uiso   1.00
C292   C     0.52866   0.04083   0.01762   0.00000  Uiso   1.00
C293   C     0.54506   0.02687   0.01720   0.00000  Uiso   1.00
C294   C     0.53048   0.99771   0.01631   0.00000  Uiso   1.00
H73    H     0.48927   0.96204   0.01521   0.00000  Uiso   1.00
O73    O     0.45683   0.98722   0.01599   0.00000  Uiso   1.00
O74    O     0.48190   0.03736   0.01752   0.00000  Uiso   1.00
H74    H     0.53952   0.06254   0.01829   0.00000  Uiso   1.00
O75    O     0.57196   0.03736   0.01752   0.00000  Uiso   1.00
O76    O     0.54690   0.98722   0.01599   0.00000  Uiso   1.00
C295   C     0.98586   0.49802   0.01763   0.00000  Uiso   1.00
C296   C    -0.00018   0.52838   0.01720   0.00000  Uiso   1.00
C297   C     0.02898   0.54296   0.01631   0.00000  Uiso   1.00
C298   C     0.04294   0.52656   0.01588   0.00000  Uiso   1.00
C299   C     0.02898   0.49620   0.01631   0.00000  Uiso   1.00
C300   C    -0.00018   0.48162   0.01720   0.00000  Uiso   1.00
H75    H     0.96415   0.48717   0.01829   0.00000  Uiso   1.00
O77    O     0.98932   0.54479   0.01752   0.00000  Uiso   1.00
O78    O     0.03947   0.56986   0.01599   0.00000  Uiso   1.00
H76    H     0.06465   0.53741   0.01522   0.00000  Uiso   1.00
O79    O     0.03947   0.47979   0.01599   0.00000  Uiso   1.00
O80    O     0.98932   0.45472   0.01752   0.00000  Uiso   1.00
C301   C     0.50014   0.52657   0.01588   0.00000  Uiso   1.00
C302   C     0.48374   0.49622   0.01631   0.00000  Uiso   1.00
C303   C     0.49832   0.48163   0.01720   0.00000  Uiso   1.00
C304   C     0.52868   0.49803   0.01763   0.00000  Uiso   1.00
C305   C     0.54508   0.52838   0.01720   0.00000  Uiso   1.00
C306   C     0.53049   0.54297   0.01631   0.00000  Uiso   1.00
H77    H     0.48928   0.53743   0.01522   0.00000  Uiso   1.00
O81    O     0.45684   0.47981   0.01599   0.00000  Uiso   1.00
O82    O     0.48192   0.45473   0.01752   0.00000  Uiso   1.00
H78    H     0.53954   0.48717   0.01830   0.00000  Uiso   1.00
O83    O     0.57198   0.54479   0.01752   0.00000  Uiso   1.00
O84    O     0.54690   0.56987   0.01599   0.00000  Uiso   1.00
C307   C     0.19533   0.37416   0.35096   0.00000  Uiso   1.00
C308   C     0.16497   0.36020   0.35053   0.00000  Uiso   1.00
C309   C     0.15040   0.33104   0.34964   0.00000  Uiso   1.00
C310   C     0.16680   0.31709   0.34921   0.00000  Uiso   1.00
C311   C     0.19715   0.33104   0.34964   0.00000  Uiso   1.00
C312   C     0.21173   0.36021   0.35053   0.00000  Uiso   1.00
H79    H     0.20618   0.39587   0.35162   0.00000  Uiso   1.00
O85    O     0.14856   0.37070   0.35085   0.00000  Uiso   1.00
O86    O     0.12349   0.32055   0.34932   0.00000  Uiso   1.00
H80    H     0.15594   0.29537   0.34855   0.00000  Uiso   1.00
O87    O     0.21356   0.32055   0.34932   0.00000  Uiso   1.00
O88    O     0.23863   0.37070   0.35085   0.00000  Uiso   1.00
C313   C     0.65252   0.83135   0.35096   0.00000  Uiso   1.00
C314   C     0.66648   0.81495   0.35053   0.00000  Uiso   1.00
C315   C     0.69564   0.82953   0.34964   0.00000  Uiso   1.00
C316   C     0.70960   0.85989   0.34921   0.00000  Uiso   1.00
C317   C     0.69564   0.87629   0.34964   0.00000  Uiso   1.00
C318   C     0.66648   0.86171   0.35053   0.00000  Uiso   1.00
H81    H     0.63081   0.82050   0.35162   0.00000  Uiso   1.00
O89    O     0.65599   0.78805   0.35085   0.00000  Uiso   1.00
O90    O     0.70614   0.81312   0.34932   0.00000  Uiso   1.00
H82    H     0.73131   0.87074   0.34855   0.00000  Uiso   1.00
O91    O     0.70614   0.90319   0.34932   0.00000  Uiso   1.00
O92    O     0.65599   0.87812   0.35085   0.00000  Uiso   1.00
C319   C     0.19534   0.83136   0.35096   0.00000  Uiso   1.00
C320   C     0.21174   0.86172   0.35054   0.00000  Uiso   1.00
C321   C     0.19716   0.87630   0.34964   0.00000  Uiso   1.00
C322   C     0.16680   0.85990   0.34922   0.00000  Uiso   1.00
C323   C     0.15041   0.82955   0.34964   0.00000  Uiso   1.00
C324   C     0.16499   0.81497   0.35054   0.00000  Uiso   1.00
H83    H     0.20620   0.82051   0.35163   0.00000  Uiso   1.00
O93    O     0.23864   0.87813   0.35086   0.00000  Uiso   1.00
O94    O     0.21357   0.90320   0.34932   0.00000  Uiso   1.00
H84    H     0.15595   0.87076   0.34855   0.00000  Uiso   1.00
O95    O     0.12351   0.81314   0.34932   0.00000  Uiso   1.00
O96    O     0.14858   0.78807   0.35086   0.00000  Uiso   1.00
C325   C     0.83346   0.65042   0.68255   0.00000  Uiso   1.00
C326   C     0.86382   0.66437   0.68297   0.00000  Uiso   1.00
C327   C     0.87840   0.69354   0.68386   0.00000  Uiso   1.00
C328   C     0.86200   0.70749   0.68429   0.00000  Uiso   1.00
C329   C     0.83164   0.69354   0.68387   0.00000  Uiso   1.00
C330   C     0.81706   0.66437   0.68297   0.00000  Uiso   1.00
H85    H     0.82261   0.62871   0.68188   0.00000  Uiso   1.00
O97    O     0.88023   0.65388   0.68265   0.00000  Uiso   1.00
O98    O     0.90530   0.70403   0.68418   0.00000  Uiso   1.00
H86    H     0.87285   0.72921   0.68496   0.00000  Uiso   1.00
O99    O     0.81523   0.70403   0.68418   0.00000  Uiso   1.00
O100   O     0.79016   0.65388   0.68266   0.00000  Uiso   1.00
C331   C     0.31919   0.16469   0.68430   0.00000  Uiso   1.00
C332   C     0.33315   0.19504   0.68387   0.00000  Uiso   1.00
C333   C     0.36231   0.20962   0.68298   0.00000  Uiso   1.00
C334   C     0.37627   0.19322   0.68255   0.00000  Uiso   1.00
C335   C     0.36231   0.16287   0.68298   0.00000  Uiso   1.00
C336   C     0.33315   0.14829   0.68387   0.00000  Uiso   1.00
H87    H     0.29748   0.15383   0.68496   0.00000  Uiso   1.00
O101   O     0.32266   0.21145   0.68419   0.00000  Uiso   1.00
O102   O     0.37281   0.23652   0.68266   0.00000  Uiso   1.00
H88    H     0.39798   0.20408   0.68188   0.00000  Uiso   1.00
O103   O     0.37281   0.14646   0.68266   0.00000  Uiso   1.00
O104   O     0.32266   0.12139   0.68419   0.00000  Uiso   1.00
C337   C     0.83347   0.19324   0.68255   0.00000  Uiso   1.00
C338   C     0.86383   0.20963   0.68298   0.00000  Uiso   1.00
C339   C     0.87841   0.19505   0.68387   0.00000  Uiso   1.00
C340   C     0.86201   0.16470   0.68430   0.00000  Uiso   1.00
C341   C     0.83166   0.14830   0.68387   0.00000  Uiso   1.00
C342   C     0.81707   0.16288   0.68298   0.00000  Uiso   1.00
H89    H     0.82261   0.20409   0.68188   0.00000  Uiso   1.00
O105   O     0.88023   0.23653   0.68266   0.00000  Uiso   1.00
O106   O     0.90531   0.21146   0.68419   0.00000  Uiso   1.00
H90    H     0.87287   0.15384   0.68497   0.00000  Uiso   1.00
O107   O     0.81525   0.12140   0.68419   0.00000  Uiso   1.00
O108   O     0.79017   0.14647   0.68266   0.00000  Uiso   1.00
C343   C     0.39046   0.97789   0.99626   0.00000  Uiso   1.00
C344   C     0.40996   0.99372   0.98235   0.00000  Uiso   1.00
C345   C     0.40000   0.99009   0.96319   0.00000  Uiso   1.00
C346   C     0.37165   0.97062   0.95759   0.00000  Uiso   1.00
C347   C     0.35316   0.95354   0.97130   0.00000  Uiso   1.00
C348   C     0.36263   0.95767   0.99046   0.00000  Uiso   1.00
O109   O     0.40059   0.98362   0.01297   0.00000  Uiso   1.00
O110   O     0.43473   0.00995   0.98899   0.00000  Uiso   1.00
H91    H     0.41409   0.00231   0.95280   0.00000  Uiso   1.00
O111   O     0.35986   0.96577   0.94130   0.00000  Uiso   1.00
O112   O     0.32921   0.93606   0.96436   0.00000  Uiso   1.00
H92    H     0.34845   0.94537   0.00079   0.00000  Uiso   1.00
Cu1    Cu    0.32353   0.93780   0.93929   0.00000  Uiso   1.00
C349   C     0.03296   0.42642   0.98236   0.00000  Uiso   1.00
C350   C     0.04880   0.42276   0.99626   0.00000  Uiso   1.00
C351   C     0.06902   0.41514   0.99046   0.00000  Uiso   1.00
C352   C     0.07315   0.40981   0.97131   0.00000  Uiso   1.00
C353   C     0.05607   0.41122   0.95759   0.00000  Uiso   1.00
C354   C     0.03660   0.42010   0.96320   0.00000  Uiso   1.00
O113   O     0.01674   0.43496   0.98899   0.00000  Uiso   1.00
O114   O     0.04306   0.42714   0.01298   0.00000  Uiso   1.00
H93    H     0.08132   0.41325   0.00079   0.00000  Uiso   1.00
O115   O     0.09063   0.40333   0.96436   0.00000  Uiso   1.00
O116   O     0.06091   0.40427   0.94130   0.00000  Uiso   1.00
H94    H     0.02437   0.42197   0.95280   0.00000  Uiso   1.00
Cu2    Cu    0.08889   0.39592   0.93929   0.00000  Uiso   1.00
C355   C     0.60393   0.63623   0.99626   0.00000  Uiso   1.00
C356   C     0.60027   0.61672   0.98236   0.00000  Uiso   1.00
C357   C     0.60660   0.62669   0.96320   0.00000  Uiso   1.00
C358   C     0.61547   0.65503   0.95759   0.00000  Uiso   1.00
C359   C     0.61689   0.67352   0.97131   0.00000  Uiso   1.00
C360   C     0.61155   0.66406   0.99046   0.00000  Uiso   1.00
O117   O     0.59954   0.62610   0.01298   0.00000  Uiso   1.00
O118   O     0.59173   0.59196   0.98899   0.00000  Uiso   1.00
H95    H     0.60473   0.61260   0.95280   0.00000  Uiso   1.00
O119   O     0.62242   0.66683   0.94130   0.00000  Uiso   1.00
O120   O     0.62336   0.69748   0.96436   0.00000  Uiso   1.00
H96    H     0.61343   0.67824   0.00079   0.00000  Uiso   1.00
Cu3    Cu    0.63078   0.70315   0.93929   0.00000  Uiso   1.00
C361   C     0.98000   0.38835   0.03725   0.00000  Uiso   1.00
C362   C     0.99583   0.40785   0.05115   0.00000  Uiso   1.00
C363   C     0.99219   0.39789   0.07031   0.00000  Uiso   1.00
C364   C     0.97273   0.36954   0.07592   0.00000  Uiso   1.00
C365   C     0.95565   0.35106   0.06220   0.00000  Uiso   1.00
C366   C     0.95978   0.36052   0.04305   0.00000  Uiso   1.00
O121   O     0.98573   0.39848   0.02053   0.00000  Uiso   1.00
O122   O     0.01206   0.43262   0.04452   0.00000  Uiso   1.00
H97    H     0.00442   0.41198   0.08071   0.00000  Uiso   1.00
O123   O     0.96788   0.35775   0.09221   0.00000  Uiso   1.00
O124   O     0.93817   0.32710   0.06915   0.00000  Uiso   1.00
H98    H     0.94748   0.34634   0.03272   0.00000  Uiso   1.00
Cu4    Cu    0.93991   0.32142   0.09422   0.00000  Uiso   1.00
C367   C     0.61883   0.59816   0.05116   0.00000  Uiso   1.00
C368   C     0.63834   0.60182   0.03725   0.00000  Uiso   1.00
C369   C     0.66617   0.60944   0.04305   0.00000  Uiso   1.00
C370   C     0.67563   0.61478   0.06221   0.00000  Uiso   1.00
C371   C     0.65714   0.61336   0.07592   0.00000  Uiso   1.00
C372   C     0.62880   0.60449   0.07032   0.00000  Uiso   1.00
O125   O     0.59407   0.58962   0.04452   0.00000  Uiso   1.00
O126   O     0.62821   0.59744   0.02054   0.00000  Uiso   1.00
H99    H     0.68035   0.61132   0.03272   0.00000  Uiso   1.00
O127   O     0.69959   0.62125   0.06916   0.00000  Uiso   1.00
O128   O     0.66894   0.62031   0.09221   0.00000  Uiso   1.00
H100   H     0.61471   0.60262   0.08071   0.00000  Uiso   1.00
Cu5    Cu    0.70526   0.62867   0.09422   0.00000  Uiso   1.00
C373   C     0.42853   0.03085   0.05115   0.00000  Uiso   1.00
C374   C     0.42486   0.04669   0.03725   0.00000  Uiso   1.00
C375   C     0.41724   0.06691   0.04305   0.00000  Uiso   1.00
C376   C     0.41191   0.07104   0.06220   0.00000  Uiso   1.00
C377   C     0.41333   0.05396   0.07592   0.00000  Uiso   1.00
C378   C     0.42220   0.03449   0.07031   0.00000  Uiso   1.00
O129   O     0.43707   0.01463   0.04452   0.00000  Uiso   1.00
O130   O     0.42925   0.04095   0.02053   0.00000  Uiso   1.00
H101   H     0.41536   0.07921   0.03272   0.00000  Uiso   1.00
O131   O     0.40544   0.08852   0.06915   0.00000  Uiso   1.00
O132   O     0.40638   0.05880   0.09221   0.00000  Uiso   1.00
H102   H     0.42407   0.02226   0.08071   0.00000  Uiso   1.00
Cu6    Cu    0.39803   0.08678   0.09422   0.00000  Uiso   1.00
C379   C     0.61883   0.03085   0.05115   0.00000  Uiso   1.00
C380   C     0.63833   0.04669   0.03725   0.00000  Uiso   1.00
C381   C     0.66616   0.06691   0.04305   0.00000  Uiso   1.00
C382   C     0.67563   0.07104   0.06220   0.00000  Uiso   1.00
C383   C     0.65714   0.05396   0.07592   0.00000  Uiso   1.00
C384   C     0.62879   0.03449   0.07031   0.00000  Uiso   1.00
O133   O     0.59406   0.01463   0.04452   0.00000  Uiso   1.00
O134   O     0.62820   0.04096   0.02053   0.00000  Uiso   1.00
H103   H     0.68034   0.07921   0.03272   0.00000  Uiso   1.00
O135   O     0.69958   0.08852   0.06915   0.00000  Uiso   1.00
O136   O     0.66893   0.05880   0.09221   0.00000  Uiso   1.00
H104   H     0.61470   0.02227   0.08071   0.00000  Uiso   1.00
Cu7    Cu    0.70526   0.08678   0.09422   0.00000  Uiso   1.00
C385   C     0.98000   0.60182   0.03725   0.00000  Uiso   1.00
C386   C     0.99584   0.59816   0.05115   0.00000  Uiso   1.00
C387   C     0.99220   0.60448   0.07032   0.00000  Uiso   1.00
C388   C     0.97273   0.61336   0.07592   0.00000  Uiso   1.00
C389   C     0.95565   0.61477   0.06221   0.00000  Uiso   1.00
C390   C     0.95978   0.60944   0.04305   0.00000  Uiso   1.00
O137   O     0.98573   0.59744   0.02054   0.00000  Uiso   1.00
O138   O     0.01206   0.58961   0.04452   0.00000  Uiso   1.00
H105   H     0.00443   0.60262   0.08071   0.00000  Uiso   1.00
O139   O     0.96789   0.62031   0.09221   0.00000  Uiso   1.00
O140   O     0.93817   0.62125   0.06915   0.00000  Uiso   1.00
H106   H     0.94748   0.61133   0.03272   0.00000  Uiso   1.00
Cu8    Cu    0.93992   0.62866   0.09422   0.00000  Uiso   1.00
C391   C     0.42488   0.38837   0.03725   0.00000  Uiso   1.00
C392   C     0.42855   0.40787   0.05115   0.00000  Uiso   1.00
C393   C     0.42222   0.39791   0.07031   0.00000  Uiso   1.00
C394   C     0.41334   0.36956   0.07592   0.00000  Uiso   1.00
C395   C     0.41193   0.35107   0.06221   0.00000  Uiso   1.00
C396   C     0.41726   0.36054   0.04305   0.00000  Uiso   1.00
O141   O     0.42927   0.39850   0.02054   0.00000  Uiso   1.00
O142   O     0.43709   0.43264   0.04452   0.00000  Uiso   1.00
H107   H     0.42408   0.41200   0.08071   0.00000  Uiso   1.00
O143   O     0.40639   0.35777   0.09221   0.00000  Uiso   1.00
O144   O     0.40545   0.32712   0.06915   0.00000  Uiso   1.00
H108   H     0.41538   0.34636   0.03272   0.00000  Uiso   1.00
Cu9    Cu    0.39804   0.32144   0.09422   0.00000  Uiso   1.00
C397   C     0.03296   0.61672   0.98236   0.00000  Uiso   1.00
C398   C     0.04880   0.63622   0.99626   0.00000  Uiso   1.00
C399   C     0.06901   0.66405   0.99046   0.00000  Uiso   1.00
C400   C     0.07315   0.67352   0.97130   0.00000  Uiso   1.00
C401   C     0.05607   0.65503   0.95759   0.00000  Uiso   1.00
C402   C     0.03660   0.62668   0.96320   0.00000  Uiso   1.00
O145   O     0.01673   0.59195   0.98899   0.00000  Uiso   1.00
O146   O     0.04306   0.62610   0.01298   0.00000  Uiso   1.00
H109   H     0.08132   0.67824   0.00079   0.00000  Uiso   1.00
O147   O     0.09062   0.69747   0.96436   0.00000  Uiso   1.00
O148   O     0.06091   0.66682   0.94130   0.00000  Uiso   1.00
H110   H     0.02437   0.61259   0.95280   0.00000  Uiso   1.00
Cu10   Cu    0.08889   0.70315   0.93929   0.00000  Uiso   1.00
C403   C     0.40998   0.42644   0.98236   0.00000  Uiso   1.00
C404   C     0.39048   0.42277   0.99626   0.00000  Uiso   1.00
C405   C     0.36265   0.41516   0.99046   0.00000  Uiso   1.00
C406   C     0.35318   0.40982   0.97131   0.00000  Uiso   1.00
C407   C     0.37167   0.41123   0.95759   0.00000  Uiso   1.00
C408   C     0.40002   0.42011   0.96320   0.00000  Uiso   1.00
O149   O     0.43475   0.43498   0.98899   0.00000  Uiso   1.00
O150   O     0.40061   0.42716   0.01298   0.00000  Uiso   1.00
H111   H     0.34846   0.41328   0.00079   0.00000  Uiso   1.00
O151   O     0.32923   0.40334   0.96436   0.00000  Uiso   1.00
O152   O     0.35988   0.40428   0.94130   0.00000  Uiso   1.00
H112   H     0.41411   0.42198   0.95280   0.00000  Uiso   1.00
Cu11   Cu    0.32355   0.39593   0.93929   0.00000  Uiso   1.00
C409   C     0.60393   0.97789   0.99626   0.00000  Uiso   1.00
C410   C     0.60027   0.99373   0.98236   0.00000  Uiso   1.00
C411   C     0.60659   0.99009   0.96319   0.00000  Uiso   1.00
C412   C     0.61547   0.97062   0.95759   0.00000  Uiso   1.00
C413   C     0.61688   0.95355   0.97130   0.00000  Uiso   1.00
C414   C     0.61155   0.95768   0.99046   0.00000  Uiso   1.00
O153   O     0.59954   0.98363   0.01297   0.00000  Uiso   1.00
O154   O     0.59172   0.00995   0.98899   0.00000  Uiso   1.00
H113   H     0.60472   0.00232   0.95280   0.00000  Uiso   1.00
O155   O     0.62242   0.96578   0.94130   0.00000  Uiso   1.00
O156   O     0.62336   0.93607   0.96436   0.00000  Uiso   1.00
H114   H     0.61343   0.94537   0.00079   0.00000  Uiso   1.00
Cu12   Cu    0.63077   0.93781   0.93929   0.00000  Uiso   1.00
C415   C     0.05713   0.31122   0.32959   0.00000  Uiso   1.00
C416   C     0.07663   0.32706   0.31569   0.00000  Uiso   1.00
C417   C     0.06666   0.32342   0.29653   0.00000  Uiso   1.00
C418   C     0.03832   0.30395   0.29092   0.00000  Uiso   1.00
C419   C     0.01983   0.28687   0.30464   0.00000  Uiso   1.00
C420   C     0.02930   0.29100   0.32379   0.00000  Uiso   1.00
O157   O     0.06725   0.31696   0.34631   0.00000  Uiso   1.00
O158   O     0.10139   0.34328   0.32232   0.00000  Uiso   1.00
H115   H     0.08075   0.33564   0.28613   0.00000  Uiso   1.00
O159   O     0.02653   0.29910   0.27463   0.00000  Uiso   1.00
O160   O     0.99588   0.26939   0.29769   0.00000  Uiso   1.00
H116   H     0.01511   0.27870   0.33412   0.00000  Uiso   1.00
Cu13   Cu    0.99020   0.27113   0.27262   0.00000  Uiso   1.00
C421   C     0.69963   0.75976   0.31569   0.00000  Uiso   1.00
C422   C     0.71547   0.75609   0.32959   0.00000  Uiso   1.00
C423   C     0.73568   0.74847   0.32379   0.00000  Uiso   1.00
C424   C     0.73982   0.74314   0.30464   0.00000  Uiso   1.00
C425   C     0.72274   0.74456   0.29092   0.00000  Uiso   1.00
C426   C     0.70327   0.75343   0.29653   0.00000  Uiso   1.00
O161   O     0.68340   0.76830   0.32232   0.00000  Uiso   1.00
O162   O     0.70973   0.76048   0.34631   0.00000  Uiso   1.00
H117   H     0.74799   0.74659   0.33412   0.00000  Uiso   1.00
O163   O     0.75730   0.73667   0.29769   0.00000  Uiso   1.00
O164   O     0.72758   0.73761   0.27463   0.00000  Uiso   1.00
H118   H     0.69104   0.75530   0.28613   0.00000  Uiso   1.00
Cu14   Cu    0.75556   0.72926   0.27262   0.00000  Uiso   1.00
C427   C     0.27060   0.96956   0.32960   0.00000  Uiso   1.00
C428   C     0.26694   0.95006   0.31569   0.00000  Uiso   1.00
C429   C     0.27326   0.96002   0.29653   0.00000  Uiso   1.00
C430   C     0.28214   0.98837   0.29092   0.00000  Uiso   1.00
C431   C     0.28355   0.00686   0.30464   0.00000  Uiso   1.00
C432   C     0.27822   0.99739   0.32379   0.00000  Uiso   1.00
O165   O     0.26621   0.95944   0.34631   0.00000  Uiso   1.00
O166   O     0.25840   0.92529   0.32233   0.00000  Uiso   1.00
H119   H     0.27140   0.94593   0.28613   0.00000  Uiso   1.00
O167   O     0.28909   1.00016   0.27463   0.00000  Uiso   1.00
O168   O     0.29003   0.03081   0.29769   0.00000  Uiso   1.00
H120   H     0.28010   0.01158   0.33412   0.00000  Uiso   1.00
Cu15   Cu    0.29744   0.03649   0.27262   0.00000  Uiso   1.00
C433   C     0.64666   0.72169   0.37058   0.00000  Uiso   1.00
C434   C     0.66250   0.74119   0.38448   0.00000  Uiso   1.00
C435   C     0.65886   0.73122   0.40364   0.00000  Uiso   1.00
C436   C     0.63939   0.70288   0.40925   0.00000  Uiso   1.00
C437   C     0.62231   0.68439   0.39553   0.00000  Uiso   1.00
C438   C     0.62645   0.69386   0.37638   0.00000  Uiso   1.00
O169   O     0.65240   0.73181   0.35386   0.00000  Uiso   1.00
O170   O     0.67872   0.76595   0.37785   0.00000  Uiso   1.00
H121   H     0.67108   0.74531   0.41404   0.00000  Uiso   1.00
O171   O     0.63455   0.69109   0.42554   0.00000  Uiso   1.00
O172   O     0.60483   0.66044   0.40248   0.00000  Uiso   1.00
H122   H     0.61414   0.67967   0.36605   0.00000  Uiso   1.00
Cu16   Cu    0.60657   0.65476   0.42755   0.00000  Uiso   1.00
C439   C     0.28550   0.93150   0.38449   0.00000  Uiso   1.00
C440   C     0.30500   0.93516   0.37058   0.00000  Uiso   1.00
C441   C     0.33283   0.94277   0.37639   0.00000  Uiso   1.00
C442   C     0.34230   0.94811   0.39554   0.00000  Uiso   1.00
C443   C     0.32381   0.94670   0.40926   0.00000  Uiso   1.00
C444   C     0.29546   0.93782   0.40365   0.00000  Uiso   1.00
O173   O     0.26073   0.92295   0.37785   0.00000  Uiso   1.00
O174   O     0.29488   0.93077   0.35387   0.00000  Uiso   1.00
H123   H     0.34702   0.94465   0.36606   0.00000  Uiso   1.00
O175   O     0.36625   0.95458   0.40249   0.00000  Uiso   1.00
O176   O     0.33560   0.95365   0.42555   0.00000  Uiso   1.00
H124   H     0.28137   0.93596   0.41405   0.00000  Uiso   1.00
Cu17   Cu    0.37193   0.96200   0.42756   0.00000  Uiso   1.00
C445   C     0.09520   0.36419   0.38448   0.00000  Uiso   1.00
C446   C     0.09153   0.38002   0.37058   0.00000  Uiso   1.00
C447   C     0.08391   0.40024   0.37638   0.00000  Uiso   1.00
C448   C     0.07858   0.40437   0.39554   0.00000  Uiso   1.00
C449   C     0.08000   0.38729   0.40925   0.00000  Uiso   1.00
C450   C     0.08887   0.36782   0.40365   0.00000  Uiso   1.00
O177   O     0.10374   0.34796   0.37785   0.00000  Uiso   1.00
O178   O     0.09592   0.37429   0.35387   0.00000  Uiso   1.00
H125   H     0.08203   0.41254   0.36605   0.00000  Uiso   1.00
O179   O     0.07211   0.42185   0.40249   0.00000  Uiso   1.00
O180   O     0.07305   0.39214   0.42554   0.00000  Uiso   1.00
H126   H     0.09074   0.35560   0.41404   0.00000  Uiso   1.00
Cu18   Cu    0.06470   0.42011   0.42755   0.00000  Uiso   1.00
C451   C     0.30500   0.38003   0.37058   0.00000  Uiso   1.00
C452   C     0.28550   0.36419   0.38448   0.00000  Uiso   1.00
C453   C     0.29546   0.36782   0.40364   0.00000  Uiso   1.00
C454   C     0.32380   0.38729   0.40925   0.00000  Uiso   1.00
C455   C     0.34229   0.40437   0.39553   0.00000  Uiso   1.00
C456   C     0.33283   0.40024   0.37638   0.00000  Uiso   1.00
O181   O     0.29487   0.37429   0.35386   0.00000  Uiso   1.00
O182   O     0.26073   0.34796   0.37785   0.00000  Uiso   1.00
H127   H     0.28137   0.35560   0.41404   0.00000  Uiso   1.00
O183   O     0.33560   0.39214   0.42554   0.00000  Uiso   1.00
O184   O     0.36625   0.42185   0.40248   0.00000  Uiso   1.00
H128   H     0.34701   0.41255   0.36605   0.00000  Uiso   1.00
Cu19   Cu    0.37192   0.42011   0.42755   0.00000  Uiso   1.00
C457   C     0.64666   0.93515   0.37058   0.00000  Uiso   1.00
C458   C     0.66250   0.93149   0.38449   0.00000  Uiso   1.00
C459   C     0.65887   0.93781   0.40365   0.00000  Uiso   1.00
C460   C     0.63940   0.94669   0.40926   0.00000  Uiso   1.00
C461   C     0.62232   0.94810   0.39554   0.00000  Uiso   1.00
C462   C     0.62645   0.94277   0.37638   0.00000  Uiso   1.00
O185   O     0.65240   0.93077   0.35387   0.00000  Uiso   1.00
O186   O     0.67873   0.92295   0.37785   0.00000  Uiso   1.00
H129   H     0.67109   0.93594   0.41405   0.00000  Uiso   1.00
O187   O     0.63455   0.95364   0.42555   0.00000  Uiso   1.00
O188   O     0.60484   0.95458   0.40249   0.00000  Uiso   1.00
H130   H     0.61414   0.94466   0.36605   0.00000  Uiso   1.00
Cu20   Cu    0.60658   0.96199   0.42756   0.00000  Uiso   1.00
C463   C     0.09155   0.72171   0.37058   0.00000  Uiso   1.00
C464   C     0.09521   0.74121   0.38449   0.00000  Uiso   1.00
C465   C     0.08889   0.73124   0.40365   0.00000  Uiso   1.00
C466   C     0.08001   0.70290   0.40925   0.00000  Uiso   1.00
C467   C     0.07860   0.68441   0.39554   0.00000  Uiso   1.00
C468   C     0.08393   0.69387   0.37638   0.00000  Uiso   1.00
O189   O     0.09594   0.73183   0.35387   0.00000  Uiso   1.00
O190   O     0.10375   0.76597   0.37785   0.00000  Uiso   1.00
H131   H     0.09075   0.74533   0.41404   0.00000  Uiso   1.00
O191   O     0.07306   0.69111   0.42554   0.00000  Uiso   1.00
O192   O     0.07212   0.66045   0.40249   0.00000  Uiso   1.00
H132   H     0.08205   0.67969   0.36605   0.00000  Uiso   1.00
Cu21   Cu    0.06471   0.65478   0.42756   0.00000  Uiso   1.00
C469   C     0.69962   0.95005   0.31569   0.00000  Uiso   1.00
C470   C     0.71546   0.96955   0.32960   0.00000  Uiso   1.00
C471   C     0.73568   0.99738   0.32379   0.00000  Uiso   1.00
C472   C     0.73981   0.00685   0.30464   0.00000  Uiso   1.00
C473   C     0.72273   0.98836   0.29092   0.00000  Uiso   1.00
C474   C     0.70326   0.96002   0.29653   0.00000  Uiso   1.00
O193   O     0.68340   0.92529   0.32232   0.00000  Uiso   1.00
O194   O     0.70973   0.95943   0.34631   0.00000  Uiso   1.00
H133   H     0.74798   0.01157   0.33412   0.00000  Uiso   1.00
O195   O     0.75729   0.03080   0.29769   0.00000  Uiso   1.00
O196   O     0.72758   1.00015   0.27463   0.00000  Uiso   1.00
H134   H     0.69104   0.94593   0.28613   0.00000  Uiso   1.00
Cu22   Cu    0.75555   0.03648   0.27262   0.00000  Uiso   1.00
C475   C     0.07665   0.75977   0.31569   0.00000  Uiso   1.00
C476   C     0.05715   0.75611   0.32960   0.00000  Uiso   1.00
C477   C     0.02932   0.74849   0.32379   0.00000  Uiso   1.00
C478   C     0.01985   0.74316   0.30464   0.00000  Uiso   1.00
C479   C     0.03834   0.74457   0.29092   0.00000  Uiso   1.00
C480   C     0.06669   0.75345   0.29653   0.00000  Uiso   1.00
O197   O     0.10142   0.76831   0.32233   0.00000  Uiso   1.00
O198   O     0.06727   0.76050   0.34631   0.00000  Uiso   1.00
H135   H     0.01513   0.74661   0.33412   0.00000  Uiso   1.00
O199   O     0.99589   0.73668   0.29769   0.00000  Uiso   1.00
O200   O     0.02655   0.73762   0.27463   0.00000  Uiso   1.00
H136   H     0.08078   0.75531   0.28613   0.00000  Uiso   1.00
Cu23   Cu    0.99022   0.72927   0.27262   0.00000  Uiso   1.00
C481   C     0.26693   0.32706   0.31569   0.00000  Uiso   1.00
C482   C     0.27060   0.31122   0.32959   0.00000  Uiso   1.00
C483   C     0.27822   0.29101   0.32379   0.00000  Uiso   1.00
C484   C     0.28355   0.28688   0.30463   0.00000  Uiso   1.00
C485   C     0.28214   0.30396   0.29092   0.00000  Uiso   1.00
C486   C     0.27326   0.32343   0.29653   0.00000  Uiso   1.00
O201   O     0.25839   0.34329   0.32232   0.00000  Uiso   1.00
O202   O     0.26621   0.31696   0.34631   0.00000  Uiso   1.00
H137   H     0.28010   0.27871   0.33412   0.00000  Uiso   1.00
O203   O     0.29003   0.26940   0.29769   0.00000  Uiso   1.00
O204   O     0.28908   0.29911   0.27463   0.00000  Uiso   1.00
H138   H     0.27139   0.33565   0.28613   0.00000  Uiso   1.00
Cu24   Cu    0.29744   0.27114   0.27262   0.00000  Uiso   1.00
C487   C     0.72379   0.64455   0.66293   0.00000  Uiso   1.00
C488   C     0.74330   0.66039   0.64902   0.00000  Uiso   1.00
C489   C     0.73333   0.65675   0.62986   0.00000  Uiso   1.00
C490   C     0.70499   0.63728   0.62426   0.00000  Uiso   1.00
C491   C     0.68650   0.62021   0.63797   0.00000  Uiso   1.00
C492   C     0.69596   0.62434   0.65713   0.00000  Uiso   1.00
O205   O     0.73392   0.65029   0.67964   0.00000  Uiso   1.00
O206   O     0.76806   0.67662   0.65566   0.00000  Uiso   1.00
H139   H     0.74742   0.66898   0.61946   0.00000  Uiso   1.00
O207   O     0.69319   0.63244   0.60797   0.00000  Uiso   1.00
O208   O     0.66254   0.60273   0.63102   0.00000  Uiso   1.00
H140   H     0.68178   0.61204   0.66746   0.00000  Uiso   1.00
Cu25   Cu    0.65687   0.60446   0.60595   0.00000  Uiso   1.00
C493   C     0.36630   0.09309   0.64902   0.00000  Uiso   1.00
C494   C     0.38214   0.08942   0.66293   0.00000  Uiso   1.00
C495   C     0.40235   0.08181   0.65713   0.00000  Uiso   1.00
C496   C     0.40648   0.07647   0.63797   0.00000  Uiso   1.00
C497   C     0.38940   0.07789   0.62426   0.00000  Uiso   1.00
C498   C     0.36993   0.08676   0.62986   0.00000  Uiso   1.00
O209   O     0.35007   0.10163   0.65566   0.00000  Uiso   1.00
O210   O     0.37640   0.09381   0.67964   0.00000  Uiso   1.00
H141   H     0.41466   0.07992   0.66746   0.00000  Uiso   1.00
O211   O     0.42396   0.07000   0.63103   0.00000  Uiso   1.00
O212   O     0.39425   0.07094   0.60797   0.00000  Uiso   1.00
H142   H     0.35771   0.08863   0.61947   0.00000  Uiso   1.00
Cu26   Cu    0.42222   0.06259   0.60596   0.00000  Uiso   1.00
C499   C     0.93727   0.30289   0.66293   0.00000  Uiso   1.00
C500   C     0.93360   0.28339   0.64903   0.00000  Uiso   1.00
C501   C     0.93993   0.29335   0.62987   0.00000  Uiso   1.00
C502   C     0.94881   0.32170   0.62426   0.00000  Uiso   1.00
C503   C     0.95022   0.34019   0.63797   0.00000  Uiso   1.00
C504   C     0.94488   0.33072   0.65713   0.00000  Uiso   1.00
O213   O     0.93288   0.29277   0.67964   0.00000  Uiso   1.00
O214   O     0.92506   0.25862   0.65566   0.00000  Uiso   1.00
H143   H     0.93806   0.27926   0.61947   0.00000  Uiso   1.00
O215   O     0.95576   0.33349   0.60797   0.00000  Uiso   1.00
O216   O     0.95669   0.36415   0.63102   0.00000  Uiso   1.00
H144   H     0.94676   0.34491   0.66746   0.00000  Uiso   1.00
Cu27   Cu    0.96411   0.36982   0.60596   0.00000  Uiso   1.00
C505   C     0.31333   0.05502   0.70391   0.00000  Uiso   1.00
C506   C     0.32917   0.07452   0.71782   0.00000  Uiso   1.00
C507   C     0.32553   0.06456   0.73698   0.00000  Uiso   1.00
C508   C     0.30606   0.03621   0.74258   0.00000  Uiso   1.00
C509   C     0.28898   0.01772   0.72887   0.00000  Uiso   1.00
C510   C     0.29312   0.02719   0.70971   0.00000  Uiso   1.00
O217   O     0.31907   0.06515   0.68720   0.00000  Uiso   1.00
O218   O     0.34539   0.09929   0.71118   0.00000  Uiso   1.00
H145   H     0.33775   0.07865   0.74738   0.00000  Uiso   1.00
O219   O     0.30121   0.02442   0.75887   0.00000  Uiso   1.00
O220   O     0.27150   0.99377   0.73582   0.00000  Uiso   1.00
H146   H     0.28081   0.01301   0.69938   0.00000  Uiso   1.00
Cu28   Cu    0.27324   0.98809   0.76088   0.00000  Uiso   1.00
C511   C     0.95217   0.26483   0.71782   0.00000  Uiso   1.00
C512   C     0.97167   0.26849   0.70392   0.00000  Uiso   1.00
C513   C     0.99950   0.27611   0.70972   0.00000  Uiso   1.00
C514   C     0.00896   0.28144   0.72888   0.00000  Uiso   1.00
C515   C     0.99047   0.28003   0.74259   0.00000  Uiso   1.00
C516   C     0.96213   0.27115   0.73698   0.00000  Uiso   1.00
O221   O     0.92740   0.25629   0.71119   0.00000  Uiso   1.00
O222   O     0.96154   0.26410   0.68721   0.00000  Uiso   1.00
H147   H     0.01368   0.27799   0.69939   0.00000  Uiso   1.00
O223   O     0.03292   0.28792   0.73582   0.00000  Uiso   1.00
O224   O     1.00227   0.28698   0.75888   0.00000  Uiso   1.00
H148   H     0.94804   0.26929   0.74738   0.00000  Uiso   1.00
Cu29   Cu    0.03859   0.29533   0.76089   0.00000  Uiso   1.00
C517   C     0.76186   0.69752   0.71782   0.00000  Uiso   1.00
C518   C     0.75820   0.71336   0.70391   0.00000  Uiso   1.00
C519   C     0.75058   0.73357   0.70971   0.00000  Uiso   1.00
C520   C     0.74525   0.73771   0.72887   0.00000  Uiso   1.00
C521   C     0.74666   0.72063   0.74259   0.00000  Uiso   1.00
C522   C     0.75554   0.70116   0.73698   0.00000  Uiso   1.00
O225   O     0.77040   0.68129   0.71118   0.00000  Uiso   1.00
O226   O     0.76258   0.70762   0.68720   0.00000  Uiso   1.00
H149   H     0.74870   0.74588   0.69939   0.00000  Uiso   1.00
O227   O     0.73878   0.75519   0.73582   0.00000  Uiso   1.00
O228   O     0.73972   0.72547   0.75888   0.00000  Uiso   1.00
H150   H     0.75741   0.68893   0.74738   0.00000  Uiso   1.00
Cu30   Cu    0.73137   0.75345   0.76089   0.00000  Uiso   1.00
C523   C     0.97166   0.71336   0.70391   0.00000  Uiso   1.00
C524   C     0.95216   0.69752   0.71782   0.00000  Uiso   1.00
C525   C     0.96213   0.70116   0.73698   0.00000  Uiso   1.00
C526   C     0.99047   0.72063   0.74258   0.00000  Uiso   1.00
C527   C     0.00896   0.73770   0.72887   0.00000  Uiso   1.00
C528   C     0.99949   0.73357   0.70971   0.00000  Uiso   1.00
O229   O     0.96154   0.70762   0.68720   0.00000  Uiso   1.00
O230   O     0.92740   0.68129   0.71118   0.00000  Uiso   1.00
H151   H     0.94804   0.68893   0.74737   0.00000  Uiso   1.00
O231   O     1.00226   0.72547   0.75887   0.00000  Uiso   1.00
O232   O     0.03291   0.75518   0.73582   0.00000  Uiso   1.00
H152   H     0.01368   0.74588   0.69938   0.00000  Uiso   1.00
Cu31   Cu    0.03859   0.75344   0.76088   0.00000  Uiso   1.00
C529   C     0.31333   0.26849   0.70392   0.00000  Uiso   1.00
C530   C     0.32917   0.26482   0.71782   0.00000  Uiso   1.00
C531   C     0.32554   0.27115   0.73698   0.00000  Uiso   1.00
C532   C     0.30607   0.28003   0.74259   0.00000  Uiso   1.00
C533   C     0.28899   0.28144   0.72888   0.00000  Uiso   1.00
C534   C     0.29312   0.27611   0.70972   0.00000  Uiso   1.00
O233   O     0.31907   0.26410   0.68720   0.00000  Uiso   1.00
O234   O     0.34540   0.25628   0.71119   0.00000  Uiso   1.00
H153   H     0.33776   0.26928   0.74738   0.00000  Uiso   1.00
O235   O     0.30122   0.28697   0.75888   0.00000  Uiso   1.00
O236   O     0.27151   0.28792   0.73582   0.00000  Uiso   1.00
H154   H     0.28081   0.27799   0.69939   0.00000  Uiso   1.00
Cu32   Cu    0.27325   0.29533   0.76089   0.00000  Uiso   1.00
C535   C     0.76188   0.07454   0.71782   0.00000  Uiso   1.00
C536   C     0.75822   0.05504   0.70392   0.00000  Uiso   1.00
C537   C     0.75060   0.02721   0.70972   0.00000  Uiso   1.00
C538   C     0.74527   0.01774   0.72888   0.00000  Uiso   1.00
C539   C     0.74668   0.03623   0.74259   0.00000  Uiso   1.00
C540   C     0.75555   0.06458   0.73698   0.00000  Uiso   1.00
O237   O     0.77042   0.09931   0.71119   0.00000  Uiso   1.00
O238   O     0.76261   0.06516   0.68720   0.00000  Uiso   1.00
H155   H     0.74872   0.01302   0.69939   0.00000  Uiso   1.00
O239   O     0.73879   0.99378   0.73582   0.00000  Uiso   1.00
O240   O     0.73973   0.02444   0.75888   0.00000  Uiso   1.00
H156   H     0.75742   0.07867   0.74738   0.00000  Uiso   1.00
Cu33   Cu    0.73138   0.98811   0.76089   0.00000  Uiso   1.00
C541   C     0.36630   0.28339   0.64903   0.00000  Uiso   1.00
C542   C     0.38213   0.30289   0.66293   0.00000  Uiso   1.00
C543   C     0.40235   0.33072   0.65713   0.00000  Uiso   1.00
C544   C     0.40648   0.34019   0.63797   0.00000  Uiso   1.00
C545   C     0.38940   0.32170   0.62426   0.00000  Uiso   1.00
C546   C     0.36993   0.29335   0.62986   0.00000  Uiso   1.00
O241   O     0.35007   0.25862   0.65566   0.00000  Uiso   1.00
O242   O     0.37640   0.29276   0.67964   0.00000  Uiso   1.00
H157   H     0.41465   0.34490   0.66746   0.00000  Uiso   1.00
O243   O     0.42396   0.36414   0.63102   0.00000  Uiso   1.00
O244   O     0.39425   0.33349   0.60797   0.00000  Uiso   1.00
H158   H     0.35771   0.27926   0.61947   0.00000  Uiso   1.00
Cu34   Cu    0.42222   0.36982   0.60596   0.00000  Uiso   1.00
C547   C     0.72381   0.08944   0.66293   0.00000  Uiso   1.00
C548   C     0.74332   0.09310   0.64903   0.00000  Uiso   1.00
C549   C     0.73335   0.08678   0.62986   0.00000  Uiso   1.00
C550   C     0.70501   0.07790   0.62426   0.00000  Uiso   1.00
C551   C     0.68651   0.07649   0.63797   0.00000  Uiso   1.00
C552   C     0.69598   0.08182   0.65713   0.00000  Uiso   1.00
O245   O     0.73394   0.09383   0.67964   0.00000  Uiso   1.00
O246   O     0.76808   0.10164   0.65566   0.00000  Uiso   1.00
H159   H     0.74744   0.08864   0.61947   0.00000  Uiso   1.00
O247   O     0.69321   0.07095   0.60797   0.00000  Uiso   1.00
O248   O     0.66256   0.07001   0.63103   0.00000  Uiso   1.00
H160   H     0.68180   0.07994   0.66746   0.00000  Uiso   1.00
Cu35   Cu    0.65688   0.06259   0.60596   0.00000  Uiso   1.00
C553   C     0.93360   0.66040   0.64902   0.00000  Uiso   1.00
C554   C     0.93726   0.64456   0.66293   0.00000  Uiso   1.00
C555   C     0.94488   0.62434   0.65713   0.00000  Uiso   1.00
C556   C     0.95021   0.62021   0.63797   0.00000  Uiso   1.00
C557   C     0.94880   0.63729   0.62425   0.00000  Uiso   1.00
C558   C     0.93992   0.65676   0.62986   0.00000  Uiso   1.00
O249   O     0.92505   0.67662   0.65565   0.00000  Uiso   1.00
O250   O     0.93288   0.65029   0.67964   0.00000  Uiso   1.00
H161   H     0.94677   0.61204   0.66746   0.00000  Uiso   1.00
O251   O     0.95669   0.60273   0.63102   0.00000  Uiso   1.00
O252   O     0.95575   0.63245   0.60796   0.00000  Uiso   1.00
H162   H     0.93806   0.66898   0.61946   0.00000  Uiso   1.00
Cu36   Cu    0.96410   0.60447   0.60595   0.00000  Uiso   1.00
loop_
_geom_bond_atom_site_label_1
_geom_bond_atom_site_label_2
_geom_bond_distance
_geom_bond_site_symmetry_2
_ccdc_geom_bond_type
Fe1    O73     2.089   1_545 S
Fe1    O74     2.089   .     S
Fe1    O109    2.056   1_545 S
Fe1    O110    2.069   1_554 S
Fe1    O129    2.069   .     S
Fe1    O130    2.056   .     S
Fe2    O79     2.089   .     S
Fe2    O80     2.089   1_455 S
Fe2    O113    2.069   1_554 S
Fe2    O114    2.056   .     S
Fe2    O121    2.056   1_455 S
Fe2    O122    2.069   .     S
Fe3    O83     2.089   .     S
Fe3    O84     2.089   .     S
Fe3    O117    2.056   .     S
Fe3    O118    2.069   1_554 S
Fe3    O125    2.069   .     S
Fe3    O126    2.056   .     S
Fe4    O75     2.089   .     S
Fe4    O76     2.089   1_545 S
Fe4    O133    2.069   .     S
Fe4    O134    2.056   .     S
Fe4    O153    2.056   1_545 S
Fe4    O154    2.069   1_554 S
Fe5    O77     2.089   1_455 S
Fe5    O78     2.089   .     S
Fe5    O137    2.056   1_455 S
Fe5    O138    2.069   .     S
Fe5    O145    2.069   1_554 S
Fe5    O146    2.056   .     S
Fe6    O81     2.089   .     S
Fe6    O82     2.089   .     S
Fe6    O141    2.056   .     S
Fe6    O142    2.069   .     S
Fe6    O149    2.069   1_554 S
Fe6    O150    2.056   .     S
Fe7    O85     2.089   .     S
Fe7    O86     2.089   .     S
Fe7    O157    2.056   .     S
Fe7    O158    2.069   .     S
Fe7    O177    2.069   .     S
Fe7    O178    2.056   .     S
Fe8    O89     2.089   .     S
Fe8    O90     2.089   .     S
Fe8    O161    2.069   .     S
Fe8    O162    2.056   .     S
Fe8    O169    2.056   .     S
Fe8    O170    2.069   .     S
Fe9    O93     2.089   .     S
Fe9    O94     2.089   .     S
Fe9    O165    2.056   .     S
Fe9    O166    2.069   .     S
Fe9    O173    2.069   .     S
Fe9    O174    2.056   .     S
Fe10   O87     2.089   .     S
Fe10   O88     2.089   .     S
Fe10   O181    2.056   .     S
Fe10   O182    2.069   .     S
Fe10   O201    2.069   .     S
Fe10   O202    2.056   .     S
Fe11   O91     2.089   .     S
Fe11   O92     2.089   .     S
Fe11   O185    2.056   .     S
Fe11   O186    2.069   .     S
Fe11   O193    2.069   .     S
Fe11   O194    2.056   .     S
Fe12   O95     2.089   .     S
Fe12   O96     2.089   .     S
Fe12   O189    2.056   .     S
Fe12   O190    2.069   .     S
Fe12   O197    2.069   .     S
Fe12   O198    2.056   .     S
Fe13   O99     2.089   .     S
Fe13   O100    2.089   .     S
Fe13   O205    2.056   .     S
Fe13   O206    2.069   .     S
Fe13   O225    2.069   .     S
Fe13   O226    2.056   .     S
Fe14   O103    2.089   .     S
Fe14   O104    2.089   .     S
Fe14   O209    2.069   .     S
Fe14   O210    2.056   .     S
Fe14   O217    2.056   .     S
Fe14   O218    2.069   .     S
Fe15   O105    2.089   .     S
Fe15   O106    2.089   .     S
Fe15   O213    2.056   .     S
Fe15   O214    2.069   .     S
Fe15   O221    2.069   .     S
Fe15   O222    2.056   .     S
Fe16   O97     2.089   .     S
Fe16   O98     2.089   .     S
Fe16   O229    2.056   .     S
Fe16   O230    2.069   .     S
Fe16   O249    2.069   .     S
Fe16   O250    2.056   .     S
Fe17   O101    2.089   .     S
Fe17   O102    2.089   .     S
Fe17   O233    2.056   .     S
Fe17   O234    2.069   .     S
Fe17   O241    2.069   .     S
Fe17   O242    2.056   .     S
Fe18   O107    2.089   .     S
Fe18   O108    2.089   .     S
Fe18   O237    2.069   .     S
Fe18   O238    2.056   .     S
Fe18   O245    2.056   .     S
Fe18   O246    2.069   .     S
C1     C2      1.589   .     S
C1     C6      1.423   .     D
C1     H1      1.082   .     S
C2     C3      1.440   .     S
C2     O1      1.275   .     D
C3     C4      1.603   .     S
C3     O2      1.279   .     D
C4     C5      1.430   .     D
C4     H2      1.081   .     S
C5     C6      1.466   .     S
C5     C8      1.610   1_655 S
C6     C7      1.587   .     S
C7     N1      1.405   1_655 A
C7     N8      1.387   .     A
N1     C7      1.405   1_455 A
N1     C8      1.409   .     A
N1     Ni1     2.047   .     S
C8     C5      1.610   1_455 S
C8     N2      1.399   .     A
N2     C9      1.399   .     A
C9     N3      1.409   .     A
C9     C12     1.610   .     S
N3     C10     1.405   .     A
N3     Ni1     2.047   .     S
C10    C11     1.587   .     S
C10    N5      1.387   .     A
C11    C12     1.466   .     S
C11    C20     1.423   .     D
C12    C17     1.430   .     D
N4     C13     1.405   .     A
N4     C16     1.409   .     A
N4     Ni1     2.047   .     S
C13    N5      1.387   .     A
C13    C14     1.587   .     S
C14    C15     1.466   .     S
C14    C24     1.423   .     D
C15    C16     1.610   .     S
C15    C21     1.430   .     D
C16    N7      1.399   .     A
C17    C18     1.603   .     S
C17    H3      1.081   .     S
C18    C19     1.440   .     S
C18    O3      1.279   .     D
C19    C20     1.589   .     S
C19    O4      1.275   .     D
C20    H4      1.082   .     S
C21    C22     1.603   .     S
C21    H5      1.081   .     S
C22    C23     1.440   .     S
C22    O5      1.279   .     D
C23    C24     1.589   .     S
C23    O6      1.275   .     D
C24    H6      1.082   .     S
N6     C25     1.409   .     A
N6     C28     1.405   1_455 A
N6     Ni1     2.047   .     S
C25    N7      1.399   .     A
C25    C26     1.610   1_455 S
C26    C25     1.610   1_655 S
C26    C27     1.466   .     S
C26    C32     1.430   .     D
C27    C28     1.587   .     S
C27    C29     1.423   .     D
C28    N6      1.405   1_655 A
C28    N8      1.387   .     A
C29    C30     1.589   .     S
C29    H7      1.082   .     S
C30    C31     1.440   .     S
C30    O7      1.275   .     D
C31    C32     1.603   .     S
C31    O8      1.279   .     D
C32    H8      1.081   .     S
O1     Cu36    1.889   .     S
O2     Cu36    1.899   .     S
O3     Cu21    1.899   .     S
O4     Cu21    1.889   .     S
O5     Cu18    1.899   .     S
O6     Cu18    1.890   .     S
O7     Cu27    1.889   .     S
O8     Cu27    1.899   .     S
C33    C34     1.589   .     S
C33    C38     1.423   .     D
C33    H9      1.082   .     S
C34    C35     1.440   .     S
C34    O9      1.275   .     D
C35    C36     1.603   .     S
C35    O10     1.279   .     D
C36    C37     1.430   .     D
C36    H10     1.081   .     S
C37    C38     1.466   .     S
C37    C40     1.610   .     S
C38    C39     1.587   .     S
C39    N9      1.405   .     A
C39    N16     1.387   .     A
N9     C40     1.409   .     A
N9     Ni2     2.047   .     S
C40    N10     1.399   .     A
N10    C41     1.399   .     A
C41    N11     1.409   .     A
C41    C44     1.610   .     S
N11    C42     1.405   .     A
N11    Ni2     2.047   .     S
C42    C43     1.587   .     S
C42    N13     1.387   .     A
C43    C44     1.466   .     S
C43    C52     1.423   .     D
C44    C49     1.430   .     D
N12    C45     1.405   .     A
N12    C48     1.409   .     A
N12    Ni2     2.047   .     S
C45    N13     1.387   .     A
C45    C46     1.587   .     S
C46    C47     1.466   .     S
C46    C56     1.423   .     D
C47    C48     1.610   .     S
C47    C53     1.430   .     D
C48    N15     1.399   .     A
C49    C50     1.603   .     S
C49    H11     1.081   .     S
C50    C51     1.440   .     S
C50    O11     1.279   .     D
C51    C52     1.589   .     S
C51    O12     1.275   .     D
C52    H12     1.082   .     S
C53    C54     1.603   .     S
C53    H13     1.081   .     S
C54    C55     1.440   .     S
C54    O13     1.279   .     D
C55    C56     1.589   .     S
C55    O14     1.275   .     D
C56    H14     1.082   .     S
N14    C57     1.409   .     A
N14    C60     1.405   .     A
N14    Ni2     2.047   .     S
C57    N15     1.399   .     A
C57    C58     1.610   .     S
C58    C59     1.466   .     S
C58    C64     1.430   .     D
C59    C60     1.587   .     S
C59    C61     1.423   .     D
C60    N16     1.387   .     A
C61    C62     1.589   .     S
C61    H15     1.082   .     S
C62    C63     1.440   .     S
C62    O15     1.275   .     D
C63    C64     1.603   .     S
C63    O16     1.279   .     D
C64    H16     1.081   .     S
O9     Cu19    1.890   .     S
O10    Cu19    1.899   .     S
O11    Cu34    1.899   .     S
O12    Cu34    1.889   .     S
O13    Cu25    1.899   .     S
O14    Cu25    1.890   .     S
O15    Cu16    1.889   .     S
O16    Cu16    1.899   .     S
C65    C66     1.589   .     S
C65    C70     1.423   .     D
C65    H17     1.082   .     S
C66    C67     1.440   .     S
C66    O17     1.275   .     D
C67    C68     1.603   .     S
C67    O18     1.279   .     D
C68    C69     1.430   .     D
C68    H18     1.081   .     S
C69    C70     1.466   .     S
C69    C72     1.610   .     S
C70    C71     1.587   .     S
C71    N17     1.405   .     A
C71    N24     1.387   .     A
N17    C72     1.409   .     A
N17    Ni3     2.047   .     S
C72    N18     1.399   .     A
N18    C73     1.399   .     A
C73    N19     1.409   .     A
C73    C76     1.610   1_545 S
N19    C74     1.405   1_545 A
N19    Ni3     2.047   .     S
C74    N19     1.405   1_565 A
C74    C75     1.587   .     S
C74    N21     1.387   .     A
C75    C76     1.466   .     S
C75    C84     1.423   .     D
C76    C73     1.610   1_565 S
C76    C81     1.430   .     D
N20    C77     1.405   1_545 A
N20    C80     1.409   .     A
N20    Ni3     2.047   .     S
C77    N20     1.405   1_565 A
C77    N21     1.387   .     A
C77    C78     1.587   .     S
C78    C79     1.466   .     S
C78    C88     1.423   .     D
C79    C80     1.610   1_565 S
C79    C85     1.430   .     D
C80    C79     1.610   1_545 S
C80    N23     1.399   .     A
C81    C82     1.603   .     S
C81    H19     1.081   .     S
C82    C83     1.440   .     S
C82    O19     1.279   .     D
C83    C84     1.589   .     S
C83    O20     1.275   .     D
C84    H20     1.082   .     S
C85    C86     1.603   .     S
C85    H21     1.081   .     S
C86    C87     1.440   .     S
C86    O21     1.279   .     D
C87    C88     1.589   .     S
C87    O22     1.275   .     D
C88    H22     1.082   .     S
N22    C89     1.409   .     A
N22    C92     1.405   .     A
N22    Ni3     2.047   .     S
C89    N23     1.399   .     A
C89    C90     1.610   .     S
C90    C91     1.466   .     S
C90    C96     1.430   .     D
C91    C92     1.587   .     S
C91    C93     1.423   .     D
C92    N24     1.387   .     A
C93    C94     1.589   .     S
C93    H23     1.082   .     S
C94    C95     1.440   .     S
C94    O23     1.275   .     D
C95    C96     1.603   .     S
C95    O24     1.279   .     D
C96    H24     1.081   .     S
O17    Cu35    1.889   .     S
O18    Cu35    1.899   .     S
O19    Cu20    1.899   .     S
O20    Cu20    1.889   .     S
O21    Cu17    1.899   .     S
O22    Cu17    1.889   .     S
O23    Cu26    1.889   .     S
O24    Cu26    1.899   .     S
C97    C98     1.589   .     S
C97    C102    1.423   .     D
C97    H25     1.082   .     S
C98    C99     1.440   .     S
C98    O25     1.275   .     D
C99    C100    1.603   .     S
C99    O26     1.279   .     D
C100   C101    1.430   .     D
C100   H26     1.081   .     S
C101   C102    1.466   .     S
C101   C104    1.610   .     S
C102   C103    1.587   .     S
C103   N25     1.405   .     A
C103   N32     1.387   .     A
N25    C104    1.409   .     A
N25    Ni4     2.047   .     S
C104   N26     1.399   .     A
N26    C105    1.399   .     A
C105   N27     1.409   .     A
C105   C108    1.610   .     S
N27    C106    1.405   .     A
N27    Ni4     2.047   .     S
C106   C107    1.587   .     S
C106   N29     1.387   .     A
C107   C108    1.466   .     S
C107   C116    1.423   .     D
C108   C113    1.430   .     D
N28    C109    1.405   .     A
N28    C112    1.409   .     A
N28    Ni4     2.047   .     S
C109   N29     1.387   .     A
C109   C110    1.587   .     S
C110   C111    1.466   .     S
C110   C120    1.423   .     D
C111   C112    1.610   .     S
C111   C117    1.430   .     D
C112   N31     1.399   .     A
C113   C114    1.603   .     S
C113   H27     1.081   .     S
C114   C115    1.440   .     S
C114   O27     1.279   .     D
C115   C116    1.589   .     S
C115   O28     1.275   .     D
C116   H28     1.082   .     S
C117   C118    1.603   .     S
C117   H29     1.081   .     S
C118   C119    1.440   .     S
C118   O29     1.279   .     D
C119   C120    1.589   .     S
C119   O30     1.275   .     D
C120   H30     1.082   .     S
N30    C121    1.409   .     A
N30    C124    1.405   .     A
N30    Ni4     2.047   .     S
C121   N31     1.399   .     A
C121   C122    1.610   .     S
C122   C123    1.466   .     S
C122   C128    1.430   .     D
C123   C124    1.587   .     S
C123   C125    1.423   .     D
C124   N32     1.387   .     A
C125   C126    1.589   .     S
C125   H31     1.082   .     S
C126   C127    1.440   .     S
C126   O31     1.275   .     D
C127   C128    1.603   .     S
C127   O32     1.279   .     D
C128   H32     1.081   .     S
O25    Cu30    1.890   .     S
O26    Cu30    1.899   .     S
O27    Cu3     1.899   .     S
O28    Cu3     1.889   .     S
O29    Cu12    1.899   .     S
O30    Cu12    1.889   .     S
O31    Cu33    1.889   .     S
O32    Cu33    1.899   .     S
C129   C130    1.589   .     S
C129   C134    1.423   .     D
C129   H33     1.082   .     S
C130   C131    1.440   .     S
C130   O33     1.275   .     D
C131   C132    1.603   .     S
C131   O34     1.279   .     D
C132   C133    1.430   .     D
C132   H34     1.081   .     S
C133   C134    1.466   .     S
C133   C136    1.610   .     S
C134   C135    1.587   .     S
C135   N33     1.405   .     A
C135   N40     1.387   .     A
N33    C136    1.409   .     A
N33    Ni5     2.047   .     S
C136   N34     1.399   .     A
N34    C137    1.399   .     A
C137   N35     1.409   .     A
C137   C140    1.610   .     S
N35    C138    1.405   .     A
N35    Ni5     2.047   .     S
C138   C139    1.587   .     S
C138   N37     1.387   .     A
C139   C140    1.466   .     S
C139   C148    1.423   .     D
C140   C145    1.430   .     D
N36    C141    1.405   .     A
N36    C144    1.409   .     A
N36    Ni5     2.047   .     S
C141   N37     1.387   .     A
C141   C142    1.587   .     S
C142   C143    1.466   .     S
C142   C152    1.423   .     D
C143   C144    1.610   .     S
C143   C149    1.430   .     D
C144   N39     1.399   .     A
C145   C146    1.603   .     S
C145   H35     1.081   .     S
C146   C147    1.440   .     S
C146   O35     1.279   .     D
C147   C148    1.589   .     S
C147   O36     1.275   .     D
C148   H36     1.082   .     S
C149   C150    1.603   .     S
C149   H37     1.081   .     S
C150   C151    1.440   .     S
C150   O37     1.279   .     D
C151   C152    1.589   .     S
C151   O38     1.275   .     D
C152   H38     1.082   .     S
N38    C153    1.409   .     A
N38    C156    1.405   .     A
N38    Ni5     2.047   .     S
C153   N39     1.399   .     A
C153   C154    1.610   .     S
C154   C155    1.466   .     S
C154   C160    1.430   .     D
C155   C156    1.587   .     S
C155   C157    1.423   .     D
C156   N40     1.387   .     A
C157   C158    1.589   .     S
C157   H39     1.082   .     S
C158   C159    1.440   .     S
C158   O39     1.275   .     D
C159   C160    1.603   .     S
C159   O40     1.279   .     D
C160   H40     1.081   .     S
O33    Cu31    1.890   .     S
O34    Cu31    1.899   .     S
O35    Cu10    1.899   .     S
O36    Cu10    1.889   .     S
O37    Cu1     1.899   .     S
O38    Cu1     1.890   .     S
O39    Cu28    1.889   .     S
O40    Cu28    1.899   .     S
C161   C162    1.589   .     S
C161   C166    1.423   .     D
C161   H41     1.082   .     S
C162   C163    1.440   .     S
C162   O41     1.275   .     D
C163   C164    1.603   .     S
C163   O42     1.279   .     D
C164   C165    1.430   .     D
C164   H42     1.081   .     S
C165   C166    1.466   .     S
C165   C168    1.610   .     S
C166   C167    1.587   .     S
C167   N41     1.405   .     A
C167   N48     1.387   .     A
N41    C168    1.409   .     A
N41    Ni6     2.047   .     S
C168   N42     1.399   .     A
N42    C169    1.399   .     A
C169   N43     1.409   .     A
C169   C172    1.610   .     S
N43    C170    1.405   .     A
N43    Ni6     2.047   .     S
C170   C171    1.587   .     S
C170   N45     1.387   .     A
C171   C172    1.466   .     S
C171   C180    1.423   .     D
C172   C177    1.430   .     D
N44    C173    1.405   .     A
N44    C176    1.409   .     A
N44    Ni6     2.047   .     S
C173   N45     1.387   .     A
C173   C174    1.587   .     S
C174   C175    1.466   .     S
C174   C184    1.423   .     D
C175   C176    1.610   .     S
C175   C181    1.430   .     D
C176   N47     1.399   .     A
C177   C178    1.603   .     S
C177   H43     1.081   .     S
C178   C179    1.440   .     S
C178   O43     1.279   .     D
C179   C180    1.589   .     S
C179   O44     1.275   .     D
C180   H44     1.082   .     S
C181   C182    1.603   .     S
C181   H45     1.081   .     S
C182   C183    1.440   .     S
C182   O45     1.279   .     D
C183   C184    1.589   .     S
C183   O46     1.275   .     D
C184   H46     1.082   .     S
N46    C185    1.409   .     A
N46    C188    1.405   .     A
N46    Ni6     2.047   .     S
C185   N47     1.399   .     A
C185   C186    1.610   .     S
C186   C187    1.466   .     S
C186   C192    1.430   .     D
C187   C188    1.587   .     S
C187   C189    1.423   .     D
C188   N48     1.387   .     A
C189   C190    1.589   .     S
C189   H47     1.082   .     S
C190   C191    1.440   .     S
C190   O47     1.275   .     D
C191   C192    1.603   .     S
C191   O48     1.279   .     D
C192   H48     1.081   .     S
O41    Cu11    1.889   .     S
O42    Cu11    1.899   .     S
O43    Cu32    1.899   .     S
O44    Cu32    1.889   .     S
O45    Cu29    1.899   .     S
O46    Cu29    1.889   .     S
O47    Cu2     1.889   .     S
O48    Cu2     1.899   .     S
C193   C194    1.589   .     S
C193   C198    1.423   .     D
C193   H49     1.082   .     S
C194   C195    1.440   .     S
C194   O49     1.275   .     D
C195   C196    1.603   .     S
C195   O50     1.279   .     D
C196   C197    1.430   .     D
C196   H50     1.081   .     S
C197   C198    1.466   .     S
C197   C200    1.610   .     S
C198   C199    1.587   .     S
C199   N49     1.405   .     A
C199   N56     1.387   .     A
N49    C200    1.409   .     A
N49    Ni7     2.047   .     S
C200   N50     1.399   .     A
N50    C201    1.399   .     A
C201   N51     1.409   .     A
C201   C204    1.610   .     S
N51    C202    1.405   .     A
N51    Ni7     2.047   .     S
C202   C203    1.587   .     S
C202   N53     1.387   .     A
C203   C204    1.466   .     S
C203   C212    1.423   .     D
C204   C209    1.430   .     D
N52    C205    1.405   .     A
N52    C208    1.409   .     A
N52    Ni7     2.047   .     S
C205   N53     1.387   .     A
C205   C206    1.587   .     S
C206   C207    1.466   .     S
C206   C216    1.423   .     D
C207   C208    1.610   .     S
C207   C213    1.430   .     D
C208   N55     1.399   .     A
C209   C210    1.603   .     S
C209   H51     1.081   .     S
C210   C211    1.440   .     S
C210   O51     1.279   .     D
C211   C212    1.589   .     S
C211   O52     1.275   .     D
C212   H52     1.082   .     S
C213   C214    1.603   .     S
C213   H53     1.081   .     S
C214   C215    1.440   .     S
C214   O53     1.279   .     D
C215   C216    1.589   .     S
C215   O54     1.275   .     D
C216   H54     1.082   .     S
N54    C217    1.409   .     A
N54    C220    1.405   .     A
N54    Ni7     2.047   .     S
C217   N55     1.399   .     A
C217   C218    1.610   .     S
C218   C219    1.466   .     S
C218   C224    1.430   .     D
C219   C220    1.587   .     S
C219   C221    1.423   .     D
C220   N56     1.387   .     A
C221   C222    1.589   .     S
C221   H55     1.082   .     S
C222   C223    1.440   .     S
C222   O55     1.275   .     D
C223   C224    1.603   .     S
C223   O56     1.279   .     D
C224   H56     1.081   .     S
O49    Cu9     1.889   .     S
O50    Cu9     1.899   .     S
O51    Cu24    1.899   .     S
O52    Cu24    1.889   .     S
O53    Cu15    1.899   .     S
O54    Cu15    1.889   .     S
O55    Cu6     1.890   .     S
O56    Cu6     1.899   .     S
C225   C226    1.589   .     S
C225   C230    1.423   .     D
C225   H57     1.082   .     S
C226   C227    1.440   .     S
C226   O57     1.275   .     D
C227   C228    1.603   .     S
C227   O58     1.279   .     D
C228   C229    1.430   .     D
C228   H58     1.081   .     S
C229   C230    1.466   .     S
C229   C232    1.610   .     S
C230   C231    1.587   .     S
C231   N57     1.405   .     A
C231   N64     1.387   .     A
N57    C232    1.409   .     A
N57    Ni8     2.047   .     S
C232   N58     1.399   .     A
N58    C233    1.399   .     A
C233   N59     1.409   .     A
C233   C236    1.610   .     S
N59    C234    1.405   .     A
N59    Ni8     2.047   .     S
C234   C235    1.587   .     S
C234   N61     1.387   .     A
C235   C236    1.466   .     S
C235   C244    1.423   .     D
C236   C241    1.430   .     D
N60    C237    1.405   .     A
N60    C240    1.409   .     A
N60    Ni8     2.047   .     S
C237   N61     1.387   .     A
C237   C238    1.587   .     S
C238   C239    1.466   .     S
C238   C248    1.423   .     D
C239   C240    1.610   .     S
C239   C245    1.430   .     D
C240   N63     1.399   .     A
C241   C242    1.603   .     S
C241   H59     1.081   .     S
C242   C243    1.440   .     S
C242   O59     1.279   .     D
C243   C244    1.589   .     S
C243   O60     1.275   .     D
C244   H60     1.082   .     S
C245   C246    1.603   .     S
C245   H61     1.081   .     S
C246   C247    1.440   .     S
C246   O61     1.279   .     D
C247   C248    1.589   .     S
C247   O62     1.275   .     D
C248   H62     1.082   .     S
N62    C249    1.409   .     A
N62    C252    1.405   .     A
N62    Ni8     2.047   .     S
C249   N63     1.399   .     A
C249   C250    1.610   .     S
C250   C251    1.466   .     S
C250   C256    1.430   .     D
C251   C252    1.587   .     S
C251   C253    1.423   .     D
C252   N64     1.387   .     A
C253   C254    1.589   .     S
C253   H63     1.082   .     S
C254   C255    1.440   .     S
C254   O63     1.275   .     D
C255   C256    1.603   .     S
C255   O64     1.279   .     D
C256   H64     1.081   .     S
O57    Cu7     1.890   .     S
O58    Cu7     1.899   .     S
O59    Cu22    1.899   .     S
O60    Cu22    1.889   .     S
O61    Cu13    1.899   .     S
O62    Cu13    1.890   .     S
O63    Cu4     1.889   .     S
O64    Cu4     1.899   .     S
C257   C258    1.589   .     S
C257   C262    1.423   .     D
C257   H65     1.082   .     S
C258   C259    1.440   .     S
C258   O65     1.275   .     D
C259   C260    1.603   .     S
C259   O66     1.279   .     D
C260   C261    1.430   .     D
C260   H66     1.081   .     S
C261   C262    1.466   .     S
C261   C264    1.610   .     S
C262   C263    1.587   .     S
C263   N65     1.405   .     A
C263   N72     1.387   .     A
N65    C264    1.409   .     A
N65    Ni9     2.047   .     S
C264   N66     1.399   .     A
N66    C265    1.399   .     A
C265   N67     1.409   .     A
C265   C268    1.610   .     S
N67    C266    1.405   .     A
N67    Ni9     2.047   .     S
C266   C267    1.587   .     S
C266   N69     1.387   .     A
C267   C268    1.466   .     S
C267   C276    1.423   .     D
C268   C273    1.430   .     D
N68    C269    1.405   .     A
N68    C272    1.409   .     A
N68    Ni9     2.047   .     S
C269   N69     1.387   .     A
C269   C270    1.587   .     S
C270   C271    1.466   .     S
C270   C280    1.423   .     D
C271   C272    1.610   .     S
C271   C277    1.430   .     D
C272   N71     1.399   .     A
C273   C274    1.603   .     S
C273   H67     1.081   .     S
C274   C275    1.440   .     S
C274   O67     1.279   .     D
C275   C276    1.589   .     S
C275   O68     1.275   .     D
C276   H68     1.082   .     S
C277   C278    1.603   .     S
C277   H69     1.081   .     S
C278   C279    1.440   .     S
C278   O69     1.279   .     D
C279   C280    1.589   .     S
C279   O70     1.275   .     D
C280   H70     1.082   .     S
N70    C281    1.409   .     A
N70    C284    1.405   .     A
N70    Ni9     2.047   .     S
C281   N71     1.399   .     A
C281   C282    1.610   .     S
C282   C283    1.466   .     S
C282   C288    1.430   .     D
C283   C284    1.587   .     S
C283   C285    1.423   .     D
C284   N72     1.387   .     A
C285   C286    1.589   .     S
C285   H71     1.082   .     S
C286   C287    1.440   .     S
C286   O71     1.275   .     D
C287   C288    1.603   .     S
C287   O72     1.279   .     D
C288   H72     1.081   .     S
O65    Cu14    1.889   .     S
O66    Cu14    1.899   .     S
O67    Cu5     1.899   .     S
O68    Cu5     1.889   .     S
O69    Cu8     1.899   .     S
O70    Cu8     1.889   .     S
O71    Cu23    1.889   .     S
O72    Cu23    1.899   .     S
C289   C290    1.512   .     A
C289   C294    1.512   .     A
C289   H73     1.082   .     S
C290   C291    1.453   1_565 S
C290   O73     1.350   .     A
C291   C290    1.453   1_545 S
C291   C292    1.512   .     A
C291   O74     1.350   .     A
C292   C293    1.512   .     A
C292   H74     1.082   .     S
C293   C294    1.453   1_545 S
C293   O75     1.350   .     A
C294   C293    1.453   1_565 S
C294   O76     1.350   .     A
O73    Fe1     2.089   1_565 S
O76    Fe4     2.089   1_565 S
C295   C296    1.512   1_655 A
C295   C300    1.512   1_655 A
C295   H75     1.082   .     S
C296   C295    1.512   1_455 A
C296   C297    1.453   .     S
C296   O77     1.350   1_455 A
C297   C298    1.512   .     A
C297   O78     1.350   .     A
C298   C299    1.512   .     A
C298   H76     1.082   .     S
C299   C300    1.453   .     S
C299   O79     1.350   .     A
C300   C295    1.512   1_455 A
C300   O80     1.350   1_455 A
O77    C296    1.350   1_655 A
O77    Fe5     2.089   1_655 S
O80    C300    1.350   1_655 A
O80    Fe2     2.089   1_655 S
C301   C302    1.512   .     A
C301   C306    1.512   .     A
C301   H77     1.082   .     S
C302   C303    1.453   .     S
C302   O81     1.350   .     A
C303   C304    1.512   .     A
C303   O82     1.350   .     A
C304   C305    1.512   .     A
C304   H78     1.082   .     S
C305   C306    1.453   .     S
C305   O83     1.350   .     A
C306   O84     1.350   .     A
C307   C308    1.512   .     A
C307   C312    1.512   .     A
C307   H79     1.082   .     S
C308   C309    1.453   .     S
C308   O85     1.350   .     A
C309   C310    1.512   .     A
C309   O86     1.350   .     A
C310   C311    1.512   .     A
C310   H80     1.082   .     S
C311   C312    1.453   .     S
C311   O87     1.350   .     A
C312   O88     1.350   .     A
C313   C314    1.512   .     A
C313   C318    1.512   .     A
C313   H81     1.082   .     S
C314   C315    1.453   .     S
C314   O89     1.350   .     A
C315   C316    1.512   .     A
C315   O90     1.350   .     A
C316   C317    1.512   .     A
C316   H82     1.082   .     S
C317   C318    1.453   .     S
C317   O91     1.350   .     A
C318   O92     1.350   .     A
C319   C320    1.512   .     A
C319   C324    1.512   .     A
C319   H83     1.082   .     S
C320   C321    1.453   .     S
C320   O93     1.350   .     A
C321   C322    1.512   .     A
C321   O94     1.350   .     A
C322   C323    1.512   .     A
C322   H84     1.082   .     S
C323   C324    1.453   .     S
C323   O95     1.350   .     A
C324   O96     1.350   .     A
C325   C326    1.512   .     A
C325   C330    1.512   .     A
C325   H85     1.082   .     S
C326   C327    1.453   .     S
C326   O97     1.350   .     A
C327   C328    1.512   .     A
C327   O98     1.350   .     A
C328   C329    1.512   .     A
C328   H86     1.082   .     S
C329   C330    1.453   .     S
C329   O99     1.350   .     A
C330   O100    1.350   .     A
C331   C332    1.512   .     A
C331   C336    1.512   .     A
C331   H87     1.082   .     S
C332   C333    1.453   .     S
C332   O101    1.350   .     A
C333   C334    1.512   .     A
C333   O102    1.350   .     A
C334   C335    1.512   .     A
C334   H88     1.082   .     S
C335   C336    1.453   .     S
C335   O103    1.350   .     A
C336   O104    1.350   .     A
C337   C338    1.512   .     A
C337   C342    1.512   .     A
C337   H89     1.082   .     S
C338   C339    1.453   .     S
C338   O105    1.350   .     A
C339   C340    1.512   .     A
C339   O106    1.350   .     A
C340   C341    1.512   .     A
C340   H90     1.082   .     S
C341   C342    1.453   .     S
C341   O107    1.350   .     A
C342   O108    1.350   .     A
C343   C344    1.456   .     S
C343   C348    1.494   .     A
C343   O109    1.334   1_556 A
C344   C345    1.502   .     A
C344   O110    1.344   1_565 A
C345   C346    1.501   .     A
C345   H91     1.082   1_565 S
C346   C347    1.441   .     S
C346   O111    1.340   .     A
C347   C348    1.492   .     A
C347   O112    1.336   .     A
C348   H92     1.082   1_556 S
O109   Fe1     2.056   1_565 S
O109   C343    1.334   1_554 A
O110   Fe1     2.069   1_556 S
O110   C344    1.344   1_545 A
H91    C345    1.082   1_545 S
O111   Cu1     1.899   .     S
O112   Cu1     1.891   .     S
H92    C348    1.082   1_554 S
C349   C350    1.456   .     S
C349   C354    1.502   .     A
C349   O113    1.344   .     A
C350   C351    1.494   .     A
C350   O114    1.334   1_556 A
C351   C352    1.492   .     A
C351   H93     1.082   1_556 S
C352   C353    1.441   .     S
C352   O115    1.336   .     A
C353   C354    1.501   .     A
C353   O116    1.340   .     A
C354   H94     1.082   .     S
O113   Fe2     2.069   1_556 S
O114   C350    1.334   1_554 A
H93    C351    1.082   1_554 S
O115   Cu2     1.891   .     S
O116   Cu2     1.899   .     S
C355   C356    1.456   .     S
C355   C360    1.494   .     A
C355   O117    1.334   1_556 A
C356   C357    1.502   .     A
C356   O118    1.344   .     A
C357   C358    1.501   .     A
C357   H95     1.082   .     S
C358   C359    1.441   .     S
C358   O119    1.340   .     A
C359   C360    1.492   .     A
C359   O120    1.336   .     A
C360   H96     1.082   1_556 S
O117   C355    1.334   1_554 A
O118   Fe3     2.069   1_556 S
O119   Cu3     1.899   .     S
O120   Cu3     1.891   .     S
H96    C360    1.082   1_554 S
C361   C362    1.456   .     S
C361   C366    1.494   .     A
C361   O121    1.334   .     A
C362   C363    1.502   .     A
C362   O122    1.344   1_655 A
C363   C364    1.501   .     A
C363   H97     1.082   1_655 S
C364   C365    1.441   .     S
C364   O123    1.340   .     A
C365   C366    1.492   .     A
C365   O124    1.336   .     A
C366   H98     1.082   .     S
O121   Fe2     2.056   1_655 S
O122   C362    1.344   1_455 A
H97    C363    1.082   1_455 S
O123   Cu4     1.899   .     S
O124   Cu4     1.891   .     S
C367   C368    1.456   .     S
C367   C372    1.502   .     A
C367   O125    1.344   .     A
C368   C369    1.494   .     A
C368   O126    1.334   .     A
C369   C370    1.492   .     A
C369   H99     1.082   .     S
C370   C371    1.441   .     S
C370   O127    1.336   .     A
C371   C372    1.501   .     A
C371   O128    1.340   .     A
C372   H100    1.082   .     S
O127   Cu5     1.891   .     S
O128   Cu5     1.899   .     S
C373   C374    1.456   .     S
C373   C378    1.502   .     A
C373   O129    1.344   .     A
C374   C375    1.494   .     A
C374   O130    1.334   .     A
C375   C376    1.492   .     A
C375   H101    1.082   .     S
C376   C377    1.441   .     S
C376   O131    1.336   .     A
C377   C378    1.501   .     A
C377   O132    1.340   .     A
C378   H102    1.082   .     S
O131   Cu6     1.891   .     S
O132   Cu6     1.899   .     S
C379   C380    1.456   .     S
C379   C384    1.502   .     A
C379   O133    1.344   .     A
C380   C381    1.494   .     A
C380   O134    1.334   .     A
C381   C382    1.492   .     A
C381   H103    1.082   .     S
C382   C383    1.441   .     S
C382   O135    1.336   .     A
C383   C384    1.501   .     A
C383   O136    1.340   .     A
C384   H104    1.082   .     S
O135   Cu7     1.891   .     S
O136   Cu7     1.899   .     S
C385   C386    1.456   .     S
C385   C390    1.494   .     A
C385   O137    1.334   .     A
C386   C387    1.502   .     A
C386   O138    1.344   1_655 A
C387   C388    1.501   .     A
C387   H105    1.082   1_655 S
C388   C389    1.441   .     S
C388   O139    1.340   .     A
C389   C390    1.492   .     A
C389   O140    1.336   .     A
C390   H106    1.082   .     S
O137   Fe5     2.056   1_655 S
O138   C386    1.344   1_455 A
H105   C387    1.082   1_455 S
O139   Cu8     1.899   .     S
O140   Cu8     1.891   .     S
C391   C392    1.456   .     S
C391   C396    1.494   .     A
C391   O141    1.334   .     A
C392   C393    1.502   .     A
C392   O142    1.344   .     A
C393   C394    1.501   .     A
C393   H107    1.082   .     S
C394   C395    1.441   .     S
C394   O143    1.340   .     A
C395   C396    1.492   .     A
C395   O144    1.336   .     A
C396   H108    1.082   .     S
O143   Cu9     1.899   .     S
O144   Cu9     1.891   .     S
C397   C398    1.456   .     S
C397   C402    1.502   .     A
C397   O145    1.344   .     A
C398   C399    1.494   .     A
C398   O146    1.334   1_556 A
C399   C400    1.492   .     A
C399   H109    1.082   1_556 S
C400   C401    1.441   .     S
C400   O147    1.336   .     A
C401   C402    1.501   .     A
C401   O148    1.340   .     A
C402   H110    1.082   .     S
O145   Fe5     2.069   1_556 S
O146   C398    1.334   1_554 A
H109   C399    1.082   1_554 S
O147   Cu10    1.891   .     S
O148   Cu10    1.899   .     S
C403   C404    1.456   .     S
C403   C408    1.502   .     A
C403   O149    1.344   .     A
C404   C405    1.494   .     A
C404   O150    1.334   1_556 A
C405   C406    1.492   .     A
C405   H111    1.082   1_556 S
C406   C407    1.441   .     S
C406   O151    1.336   .     A
C407   C408    1.501   .     A
C407   O152    1.340   .     A
C408   H112    1.082   .     S
O149   Fe6     2.069   1_556 S
O150   C404    1.334   1_554 A
H111   C405    1.082   1_554 S
O151   Cu11    1.891   .     S
O152   Cu11    1.899   .     S
C409   C410    1.456   .     S
C409   C414    1.494   .     A
C409   O153    1.334   1_556 A
C410   C411    1.502   .     A
C410   O154    1.344   1_565 A
C411   C412    1.501   .     A
C411   H113    1.082   1_565 S
C412   C413    1.441   .     S
C412   O155    1.340   .     A
C413   C414    1.492   .     A
C413   O156    1.336   .     A
C414   H114    1.082   1_556 S
O153   Fe4     2.056   1_565 S
O153   C409    1.334   1_554 A
O154   Fe4     2.069   1_556 S
O154   C410    1.344   1_545 A
H113   C411    1.082   1_545 S
O155   Cu12    1.899   .     S
O156   Cu12    1.891   .     S
H114   C414    1.082   1_554 S
C415   C416    1.456   .     S
C415   C420    1.494   .     A
C415   O157    1.334   .     A
C416   C417    1.502   .     A
C416   O158    1.344   .     A
C417   C418    1.501   .     A
C417   H115    1.082   .     S
C418   C419    1.441   .     S
C418   O159    1.340   .     A
C419   C420    1.492   .     A
C419   O160    1.336   1_455 A
C420   H116    1.082   .     S
O159   Cu13    1.899   1_455 S
O160   C419    1.336   1_655 A
O160   Cu13    1.891   .     S
Cu13   O159    1.899   1_655 S
C421   C422    1.456   .     S
C421   C426    1.502   .     A
C421   O161    1.344   .     A
C422   C423    1.494   .     A
C422   O162    1.334   .     A
C423   C424    1.492   .     A
C423   H117    1.082   .     S
C424   C425    1.441   .     S
C424   O163    1.336   .     A
C425   C426    1.501   .     A
C425   O164    1.340   .     A
C426   H118    1.082   .     S
O163   Cu14    1.891   .     S
O164   Cu14    1.899   .     S
C427   C428    1.456   .     S
C427   C432    1.494   .     A
C427   O165    1.334   .     A
C428   C429    1.502   .     A
C428   O166    1.344   .     A
C429   C430    1.501   .     A
C429   H119    1.082   .     S
C430   C431    1.441   1_565 S
C430   O167    1.340   .     A
C431   C430    1.441   1_545 S
C431   C432    1.492   1_545 A
C431   O168    1.336   .     A
C432   C431    1.492   1_565 A
C432   H120    1.082   1_565 S
O167   Cu15    1.899   1_565 S
O168   Cu15    1.891   .     S
H120   C432    1.082   1_545 S
Cu15   O167    1.899   1_545 S
C433   C434    1.456   .     S
C433   C438    1.494   .     A
C433   O169    1.334   .     A
C434   C435    1.502   .     A
C434   O170    1.344   .     A
C435   C436    1.501   .     A
C435   H121    1.082   .     S
C436   C437    1.441   .     S
C436   O171    1.340   .     A
C437   C438    1.492   .     A
C437   O172    1.336   .     A
C438   H122    1.082   .     S
O171   Cu16    1.899   .     S
O172   Cu16    1.891   .     S
C439   C440    1.456   .     S
C439   C444    1.502   .     A
C439   O173    1.344   .     A
C440   C441    1.494   .     A
C440   O174    1.334   .     A
C441   C442    1.492   .     A
C441   H123    1.082   .     S
C442   C443    1.441   .     S
C442   O175    1.336   .     A
C443   C444    1.501   .     A
C443   O176    1.340   .     A
C444   H124    1.082   .     S
O175   Cu17    1.891   .     S
O176   Cu17    1.899   .     S
C445   C446    1.456   .     S
C445   C450    1.502   .     A
C445   O177    1.344   .     A
C446   C447    1.494   .     A
C446   O178    1.334   .     A
C447   C448    1.492   .     A
C447   H125    1.082   .     S
C448   C449    1.441   .     S
C448   O179    1.336   .     A
C449   C450    1.501   .     A
C449   O180    1.340   .     A
C450   H126    1.082   .     S
O179   Cu18    1.891   .     S
O180   Cu18    1.899   .     S
C451   C452    1.456   .     S
C451   C456    1.494   .     A
C451   O181    1.334   .     A
C452   C453    1.502   .     A
C452   O182    1.344   .     A
C453   C454    1.501   .     A
C453   H127    1.082   .     S
C454   C455    1.441   .     S
C454   O183    1.340   .     A
C455   C456    1.492   .     A
C455   O184    1.336   .     A
C456   H128    1.082   .     S
O183   Cu19    1.899   .     S
O184   Cu19    1.891   .     S
C457   C458    1.456   .     S
C457   C462    1.494   .     A
C457   O185    1.334   .     A
C458   C459    1.502   .     A
C458   O186    1.344   .     A
C459   C460    1.501   .     A
C459   H129    1.082   .     S
C460   C461    1.441   .     S
C460   O187    1.340   .     A
C461   C462    1.492   .     A
C461   O188    1.336   .     A
C462   H130    1.082   .     S
O187   Cu20    1.899   .     S
O188   Cu20    1.891   .     S
C463   C464    1.456   .     S
C463   C468    1.494   .     A
C463   O189    1.334   .     A
C464   C465    1.502   .     A
C464   O190    1.344   .     A
C465   C466    1.501   .     A
C465   H131    1.082   .     S
C466   C467    1.441   .     S
C466   O191    1.340   .     A
C467   C468    1.492   .     A
C467   O192    1.336   .     A
C468   H132    1.082   .     S
O191   Cu21    1.899   .     S
O192   Cu21    1.891   .     S
C469   C470    1.456   .     S
C469   C474    1.502   .     A
C469   O193    1.344   .     A
C470   C471    1.494   .     A
C470   O194    1.334   .     A
C471   C472    1.492   1_565 A
C471   H133    1.082   1_565 S
C472   C471    1.492   1_545 A
C472   C473    1.441   1_545 S
C472   O195    1.336   .     A
C473   C472    1.441   1_565 S
C473   C474    1.501   .     A
C473   O196    1.340   .     A
C474   H134    1.082   .     S
H133   C471    1.082   1_545 S
O195   Cu22    1.891   .     S
O196   Cu22    1.899   1_565 S
Cu22   O196    1.899   1_545 S
C475   C476    1.456   .     S
C475   C480    1.502   .     A
C475   O197    1.344   .     A
C476   C477    1.494   .     A
C476   O198    1.334   .     A
C477   C478    1.492   .     A
C477   H135    1.082   .     S
C478   C479    1.441   .     S
C478   O199    1.336   1_455 A
C479   C480    1.501   .     A
C479   O200    1.340   .     A
C480   H136    1.082   .     S
O199   C478    1.336   1_655 A
O199   Cu23    1.891   .     S
O200   Cu23    1.899   1_455 S
Cu23   O200    1.899   1_655 S
C481   C482    1.456   .     S
C481   C486    1.502   .     A
C481   O201    1.344   .     A
C482   C483    1.494   .     A
C482   O202    1.334   .     A
C483   C484    1.492   .     A
C483   H137    1.082   .     S
C484   C485    1.441   .     S
C484   O203    1.336   .     A
C485   C486    1.501   .     A
C485   O204    1.340   .     A
C486   H138    1.082   .     S
O203   Cu24    1.891   .     S
O204   Cu24    1.899   .     S
C487   C488    1.456   .     S
C487   C492    1.494   .     A
C487   O205    1.334   .     A
C488   C489    1.502   .     A
C488   O206    1.344   .     A
C489   C490    1.501   .     A
C489   H139    1.082   .     S
C490   C491    1.441   .     S
C490   O207    1.340   .     A
C491   C492    1.492   .     A
C491   O208    1.336   .     A
C492   H140    1.082   .     S
O207   Cu25    1.899   .     S
O208   Cu25    1.891   .     S
C493   C494    1.456   .     S
C493   C498    1.502   .     A
C493   O209    1.344   .     A
C494   C495    1.494   .     A
C494   O210    1.334   .     A
C495   C496    1.492   .     A
C495   H141    1.082   .     S
C496   C497    1.441   .     S
C496   O211    1.336   .     A
C497   C498    1.501   .     A
C497   O212    1.340   .     A
C498   H142    1.082   .     S
O211   Cu26    1.891   .     S
O212   Cu26    1.899   .     S
C499   C500    1.456   .     S
C499   C504    1.494   .     A
C499   O213    1.334   .     A
C500   C501    1.502   .     A
C500   O214    1.344   .     A
C501   C502    1.501   .     A
C501   H143    1.082   .     S
C502   C503    1.441   .     S
C502   O215    1.340   .     A
C503   C504    1.492   .     A
C503   O216    1.336   .     A
C504   H144    1.082   .     S
O215   Cu27    1.899   .     S
O216   Cu27    1.891   .     S
C505   C506    1.456   .     S
C505   C510    1.494   .     A
C505   O217    1.334   .     A
C506   C507    1.502   .     A
C506   O218    1.344   .     A
C507   C508    1.501   .     A
C507   H145    1.082   .     S
C508   C509    1.441   .     S
C508   O219    1.340   .     A
C509   C510    1.492   .     A
C509   O220    1.336   1_545 A
C510   H146    1.082   .     S
O219   Cu28    1.899   1_545 S
O220   C509    1.336   1_565 A
O220   Cu28    1.891   .     S
Cu28   O219    1.899   1_565 S
C511   C512    1.456   .     S
C511   C516    1.502   .     A
C511   O221    1.344   .     A
C512   C513    1.494   .     A
C512   O222    1.334   .     A
C513   C514    1.492   1_655 A
C513   H147    1.082   1_655 S
C514   C513    1.492   1_455 A
C514   C515    1.441   1_455 S
C514   O223    1.336   .     A
C515   C514    1.441   1_655 S
C515   C516    1.501   .     A
C515   O224    1.340   .     A
C516   H148    1.082   .     S
H147   C513    1.082   1_455 S
O223   Cu29    1.891   .     S
O224   Cu29    1.899   1_655 S
Cu29   O224    1.899   1_455 S
C517   C518    1.456   .     S
C517   C522    1.502   .     A
C517   O225    1.344   .     A
C518   C519    1.494   .     A
C518   O226    1.334   .     A
C519   C520    1.492   .     A
C519   H149    1.082   .     S
C520   C521    1.441   .     S
C520   O227    1.336   .     A
C521   C522    1.501   .     A
C521   O228    1.340   .     A
C522   H150    1.082   .     S
O227   Cu30    1.891   .     S
O228   Cu30    1.899   .     S
C523   C524    1.456   .     S
C523   C528    1.494   .     A
C523   O229    1.334   .     A
C524   C525    1.502   .     A
C524   O230    1.344   .     A
C525   C526    1.501   .     A
C525   H151    1.082   .     S
C526   C527    1.441   1_655 S
C526   O231    1.340   .     A
C527   C526    1.441   1_455 S
C527   C528    1.492   1_455 A
C527   O232    1.336   .     A
C528   C527    1.492   1_655 A
C528   H152    1.082   1_655 S
O231   Cu31    1.899   1_655 S
O232   Cu31    1.891   .     S
H152   C528    1.082   1_455 S
Cu31   O231    1.899   1_455 S
C529   C530    1.456   .     S
C529   C534    1.494   .     A
C529   O233    1.334   .     A
C530   C531    1.502   .     A
C530   O234    1.344   .     A
C531   C532    1.501   .     A
C531   H153    1.082   .     S
C532   C533    1.441   .     S
C532   O235    1.340   .     A
C533   C534    1.492   .     A
C533   O236    1.336   .     A
C534   H154    1.082   .     S
O235   Cu32    1.899   .     S
O236   Cu32    1.891   .     S
C535   C536    1.456   .     S
C535   C540    1.502   .     A
C535   O237    1.344   .     A
C536   C537    1.494   .     A
C536   O238    1.334   .     A
C537   C538    1.492   .     A
C537   H155    1.082   .     S
C538   C539    1.441   .     S
C538   O239    1.336   1_545 A
C539   C540    1.501   .     A
C539   O240    1.340   .     A
C540   H156    1.082   .     S
O239   C538    1.336   1_565 A
O239   Cu33    1.891   .     S
O240   Cu33    1.899   1_545 S
Cu33   O240    1.899   1_565 S
C541   C542    1.456   .     S
C541   C546    1.502   .     A
C541   O241    1.344   .     A
C542   C543    1.494   .     A
C542   O242    1.334   .     A
C543   C544    1.492   .     A
C543   H157    1.082   .     S
C544   C545    1.441   .     S
C544   O243    1.336   .     A
C545   C546    1.501   .     A
C545   O244    1.340   .     A
C546   H158    1.082   .     S
O243   Cu34    1.891   .     S
O244   Cu34    1.899   .     S
C547   C548    1.456   .     S
C547   C552    1.494   .     A
C547   O245    1.334   .     A
C548   C549    1.502   .     A
C548   O246    1.344   .     A
C549   C550    1.501   .     A
C549   H159    1.082   .     S
C550   C551    1.441   .     S
C550   O247    1.340   .     A
C551   C552    1.492   .     A
C551   O248    1.336   .     A
C552   H160    1.082   .     S
O247   Cu35    1.899   .     S
O248   Cu35    1.891   .     S
C553   C554    1.456   .     S
C553   C558    1.502   .     A
C553   O249    1.344   .     A
C554   C555    1.494   .     A
C554   O250    1.334   .     A
C555   C556    1.492   .     A
C555   H161    1.082   .     S
C556   C557    1.441   .     S
C556   O251    1.336   .     A
C557   C558    1.501   .     A
C557   O252    1.340   .     A
C558   H162    1.082   .     S
O251   Cu36    1.891   .     S
O252   Cu36    1.899   .     S
