data_hof-TP_O-PcM_O-Zntet
_audit_creation_date              2021-11-06
_audit_creation_method            'Materials Studio'
_symmetry_space_group_name_H-M    'P1'
_symmetry_Int_Tables_number       1
_symmetry_cell_setting            triclinic
loop_
_symmetry_equiv_pos_as_xyz
  x,y,z
_cell_length_a                    50.8093
_cell_length_b                    50.7896
_cell_length_c                    21.4409
_cell_angle_alpha                 90.0010
_cell_angle_beta                  89.9979
_cell_angle_gamma                 90.0000
loop_
_atom_site_label
_atom_site_type_symbol
_atom_site_fract_x
_atom_site_fract_y
_atom_site_fract_z
_atom_site_U_iso_or_equiv
_atom_site_adp_type
_atom_site_occupancy
C1     C     0.90789   0.94994   0.00007   0.00000  Uiso   1.00
C2     C     0.90085   0.92315   0.00006   0.00000  Uiso   1.00
C3     C     0.92071   0.90329   0.00004   0.00000  Uiso   1.00
C4     C     0.94748   0.91033   0.00004   0.00000  Uiso   1.00
C5     C     0.95360   0.93712   0.00005   0.00000  Uiso   1.00
C6     C     0.93467   0.95606   0.00006   0.00000  Uiso   1.00
C7     C     0.94765   0.97985   0.00006   0.00000  Uiso   1.00
N1     N     0.97422   0.97669   0.00005   0.00000  Uiso   1.00
C8     C     0.97738   0.95011   0.00004   0.00000  Uiso   1.00
N2     N     0.00060   0.93766   1.00003   0.00000  Uiso   1.00
C9     C     0.02381   0.95011   1.00003   0.00000  Uiso   1.00
N3     N     0.02698   0.97669   0.00004   0.00000  Uiso   1.00
C10    C     0.05355   0.97985   0.00005   0.00000  Uiso   1.00
C11    C     0.06653   0.95606   0.00004   0.00000  Uiso   1.00
C12    C     0.04760   0.93712   1.00003   0.00000  Uiso   1.00
N4     N     0.02697   0.02946   0.00004   0.00000  Uiso   1.00
C13    C     0.05354   0.02630   0.00005   0.00000  Uiso   1.00
N5     N     0.06598   0.00308   0.00005   0.00000  Uiso   1.00
C14    C     0.06653   0.05009   0.00005   0.00000  Uiso   1.00
C15    C     0.04759   0.06903   0.00004   0.00000  Uiso   1.00
C16    C     0.02381   0.05604   0.00004   0.00000  Uiso   1.00
C17    C     0.05372   0.91033   1.00002   0.00000  Uiso   1.00
C18    C     0.08049   0.90330   1.00002   0.00000  Uiso   1.00
C19    C     0.10035   0.92316   1.00003   0.00000  Uiso   1.00
C20    C     0.09331   0.94994   0.00004   0.00000  Uiso   1.00
C21    C     0.05371   0.09582   0.00004   0.00000  Uiso   1.00
C22    C     0.08048   0.10286   0.00004   0.00000  Uiso   1.00
C23    C     0.10034   0.08300   0.00006   0.00000  Uiso   1.00
C24    C     0.09331   0.05622   0.00006   0.00000  Uiso   1.00
N6     N     0.97422   0.02946   0.00005   0.00000  Uiso   1.00
C25    C     0.97738   0.05604   1.00003   0.00000  Uiso   1.00
N7     N     0.00060   0.06848   1.00003   0.00000  Uiso   1.00
C26    C     0.95360   0.06903   0.00003   0.00000  Uiso   1.00
C27    C     0.93467   0.05009   0.00005   0.00000  Uiso   1.00
C28    C     0.94765   0.02630   0.00005   0.00000  Uiso   1.00
C29    C     0.90789   0.05621   0.00005   0.00000  Uiso   1.00
C30    C     0.90085   0.08300   0.00004   0.00000  Uiso   1.00
C31    C     0.92071   0.10286   1.00002   0.00000  Uiso   1.00
C32    C     0.94748   0.09582   1.00002   0.00000  Uiso   1.00
N8     N     0.93521   0.00307   0.00006   0.00000  Uiso   1.00
H1     H     0.89305   0.96523   0.00008   0.00000  Uiso   1.00
O1     O     0.87442   0.91573   0.00007   0.00000  Uiso   1.00
O2     O     0.91329   0.87685   0.00003   0.00000  Uiso   1.00
H2     H     0.96277   0.89548   0.00003   0.00000  Uiso   1.00
H3     H     0.03844   0.89548   1.00001   0.00000  Uiso   1.00
O3     O     0.08792   0.87685   1.00001   0.00000  Uiso   1.00
O4     O     0.12678   0.91574   1.00004   0.00000  Uiso   1.00
H4     H     0.10815   0.96524   0.00005   0.00000  Uiso   1.00
H5     H     0.03842   0.11067   1.00003   0.00000  Uiso   1.00
O5     O     0.08790   0.12931   0.00004   0.00000  Uiso   1.00
O6     O     0.12677   0.09043   0.00006   0.00000  Uiso   1.00
H6     H     0.10815   0.04093   0.00007   0.00000  Uiso   1.00
H7     H     0.89304   0.04092   0.00006   0.00000  Uiso   1.00
O7     O     0.87442   0.09042   1.00004   0.00000  Uiso   1.00
O8     O     0.91329   0.12930   1.00001   0.00000  Uiso   1.00
H8     H     0.96277   0.11067   1.00001   0.00000  Uiso   1.00
Ni1    Ni    0.00060   0.00307   0.00003   0.00000  Uiso   1.00
C33    C     0.40788   0.55620   0.49988   0.00000  Uiso   1.00
C34    C     0.40084   0.58298   0.49994   0.00000  Uiso   1.00
C35    C     0.42069   0.60284   0.50002   0.00000  Uiso   1.00
C36    C     0.44747   0.59581   0.50003   0.00000  Uiso   1.00
C37    C     0.45359   0.56902   0.49997   0.00000  Uiso   1.00
C38    C     0.43466   0.55008   0.49990   0.00000  Uiso   1.00
C39    C     0.44764   0.52629   0.49987   0.00000  Uiso   1.00
N9     N     0.47421   0.52945   0.49991   0.00000  Uiso   1.00
C40    C     0.47738   0.55603   0.49997   0.00000  Uiso   1.00
N10    N     0.50059   0.56848   0.50000   0.00000  Uiso   1.00
C41    C     0.52380   0.55604   0.49996   0.00000  Uiso   1.00
N11    N     0.52697   0.52946   0.49992   0.00000  Uiso   1.00
C42    C     0.55354   0.52629   0.49988   0.00000  Uiso   1.00
C43    C     0.56652   0.55009   0.49990   0.00000  Uiso   1.00
C44    C     0.54759   0.56903   0.49996   0.00000  Uiso   1.00
N12    N     0.52697   0.47668   0.49992   0.00000  Uiso   1.00
C45    C     0.55354   0.47985   0.49989   0.00000  Uiso   1.00
N13    N     0.56598   0.50307   0.49987   0.00000  Uiso   1.00
C46    C     0.56653   0.45606   0.49993   0.00000  Uiso   1.00
C47    C     0.54759   0.43712   0.50000   0.00000  Uiso   1.00
C48    C     0.52381   0.45010   0.49999   0.00000  Uiso   1.00
C49    C     0.55371   0.59582   0.50001   0.00000  Uiso   1.00
C50    C     0.58048   0.60286   0.50000   0.00000  Uiso   1.00
C51    C     0.60034   0.58299   0.49994   0.00000  Uiso   1.00
C52    C     0.59330   0.55621   0.49989   0.00000  Uiso   1.00
C53    C     0.55372   0.41032   0.50006   0.00000  Uiso   1.00
C54    C     0.58049   0.40329   0.50006   0.00000  Uiso   1.00
C55    C     0.60034   0.42315   0.49999   0.00000  Uiso   1.00
C56    C     0.59331   0.44993   0.49993   0.00000  Uiso   1.00
N14    N     0.47422   0.47668   0.49991   0.00000  Uiso   1.00
C57    C     0.47738   0.45010   0.49997   0.00000  Uiso   1.00
N15    N     0.50060   0.43766   0.50001   0.00000  Uiso   1.00
C58    C     0.45361   0.43711   0.49996   0.00000  Uiso   1.00
C59    C     0.43467   0.45605   0.49988   0.00000  Uiso   1.00
C60    C     0.44765   0.47984   0.49986   0.00000  Uiso   1.00
C61    C     0.40789   0.44992   0.49986   0.00000  Uiso   1.00
C62    C     0.40086   0.42314   0.49992   0.00000  Uiso   1.00
C63    C     0.42072   0.40328   0.50000   0.00000  Uiso   1.00
C64    C     0.44749   0.41032   0.50002   0.00000  Uiso   1.00
N16    N     0.43521   0.50306   0.49984   0.00000  Uiso   1.00
H9     H     0.39304   0.54090   0.49983   0.00000  Uiso   1.00
O9     O     0.37441   0.59040   0.49991   0.00000  Uiso   1.00
O10    O     0.41327   0.62928   0.50007   0.00000  Uiso   1.00
H10    H     0.46275   0.61066   0.50009   0.00000  Uiso   1.00
H11    H     0.53842   0.61067   0.50005   0.00000  Uiso   1.00
O11    O     0.58790   0.62930   0.50006   0.00000  Uiso   1.00
O12    O     0.62677   0.59041   0.49994   0.00000  Uiso   1.00
H12    H     0.60814   0.54092   0.49985   0.00000  Uiso   1.00
H13    H     0.53843   0.39548   0.50011   0.00000  Uiso   1.00
O13    O     0.58791   0.37685   0.50011   0.00000  Uiso   1.00
O14    O     0.62677   0.41573   0.49997   0.00000  Uiso   1.00
H14    H     0.60815   0.46523   0.49988   0.00000  Uiso   1.00
H15    H     0.39304   0.46521   0.49979   0.00000  Uiso   1.00
O15    O     0.37443   0.41571   0.49989   0.00000  Uiso   1.00
O16    O     0.41330   0.37683   0.50008   0.00000  Uiso   1.00
H16    H     0.46278   0.39547   0.50009   0.00000  Uiso   1.00
Ni2    Ni    0.50059   0.50307   0.49990   0.00000  Uiso   1.00
C65    C     0.20742   0.20995   0.06672   0.00000  Uiso   1.00
C66    C     0.22471   0.22722   0.03332   0.00000  Uiso   1.00
C67    C     0.22471   0.22722   0.96680   0.00000  Uiso   1.00
C68    C     0.20742   0.20995   0.93339   0.00000  Uiso   1.00
C69    C     0.19020   0.19275   0.96670   0.00000  Uiso   1.00
C70    C     0.19020   0.19275   0.03342   0.00000  Uiso   1.00
C71    C     0.20804   0.21057   0.86691   0.00000  Uiso   1.00
C72    C     0.22493   0.22744   0.83544   0.00000  Uiso   1.00
C73    C     0.24133   0.24380   0.86715   0.00000  Uiso   1.00
C74    C     0.24161   0.24409   0.93186   0.00000  Uiso   1.00
C75    C     0.20804   0.21056   0.13320   0.00000  Uiso   1.00
C76    C     0.22493   0.22743   0.16468   0.00000  Uiso   1.00
C77    C     0.24132   0.24380   0.13297   0.00000  Uiso   1.00
C78    C     0.24160   0.24409   0.06826   0.00000  Uiso   1.00
C79    C     0.17276   0.17532   0.06499   0.00000  Uiso   1.00
C80    C     0.15602   0.15858   0.03262   0.00000  Uiso   1.00
C81    C     0.15602   0.15857   0.96749   0.00000  Uiso   1.00
C82    C     0.17277   0.17531   0.93512   0.00000  Uiso   1.00
H17    H     0.19590   0.19846   0.83759   0.00000  Uiso   1.00
O17    O     0.22618   0.22868   0.77111   0.00000  Uiso   1.00
O18    O     0.25736   0.25980   0.83142   0.00000  Uiso   1.00
H18    H     0.25525   0.25770   0.95251   0.00000  Uiso   1.00
H19    H     0.19590   0.19845   0.16253   0.00000  Uiso   1.00
O19    O     0.22618   0.22867   0.22901   0.00000  Uiso   1.00
O20    O     0.25734   0.25980   0.16870   0.00000  Uiso   1.00
H20    H     0.25523   0.25772   0.04761   0.00000  Uiso   1.00
H21    H     0.17140   0.17397   0.11488   0.00000  Uiso   1.00
O21    O     0.13911   0.14167   0.06475   0.00000  Uiso   1.00
O22    O     0.13912   0.14166   0.93536   0.00000  Uiso   1.00
H22    H     0.17142   0.17395   0.88523   0.00000  Uiso   1.00
C83    C     0.77651   0.22725   0.03328   0.00000  Uiso   1.00
C84    C     0.79379   0.20997   0.06668   0.00000  Uiso   1.00
C85    C     0.81100   0.19276   0.03338   0.00000  Uiso   1.00
C86    C     0.81100   0.19276   0.96666   0.00000  Uiso   1.00
C87    C     0.79379   0.20997   0.93335   0.00000  Uiso   1.00
C88    C     0.77651   0.22725   0.96676   0.00000  Uiso   1.00
C89    C     0.82843   0.17532   0.93509   0.00000  Uiso   1.00
C90    C     0.84517   0.15857   0.96746   0.00000  Uiso   1.00
C91    C     0.84517   0.15858   0.03258   0.00000  Uiso   1.00
C92    C     0.82844   0.17533   0.06495   0.00000  Uiso   1.00
C93    C     0.75963   0.24414   0.06821   0.00000  Uiso   1.00
C94    C     0.75991   0.24385   0.13292   0.00000  Uiso   1.00
C95    C     0.77629   0.22747   0.16464   0.00000  Uiso   1.00
C96    C     0.79317   0.21059   0.13317   0.00000  Uiso   1.00
C97    C     0.75962   0.24413   0.93182   0.00000  Uiso   1.00
C98    C     0.75991   0.24384   0.86711   0.00000  Uiso   1.00
C99    C     0.77629   0.22746   0.83540   0.00000  Uiso   1.00
C100   C     0.79318   0.21059   0.86687   0.00000  Uiso   1.00
H23    H     0.82978   0.17395   0.88519   0.00000  Uiso   1.00
O23    O     0.86207   0.14166   0.93533   0.00000  Uiso   1.00
O24    O     0.86208   0.14167   0.06472   0.00000  Uiso   1.00
H24    H     0.82980   0.17398   0.11485   0.00000  Uiso   1.00
H25    H     0.74601   0.25777   0.04756   0.00000  Uiso   1.00
O25    O     0.74389   0.25985   0.16865   0.00000  Uiso   1.00
O26    O     0.77503   0.22871   0.22897   0.00000  Uiso   1.00
H26    H     0.80529   0.19846   0.16249   0.00000  Uiso   1.00
H27    H     0.74599   0.25775   0.95247   0.00000  Uiso   1.00
O27    O     0.74389   0.25984   0.83138   0.00000  Uiso   1.00
O28    O     0.77505   0.22871   0.77107   0.00000  Uiso   1.00
H28    H     0.80531   0.19847   0.83755   0.00000  Uiso   1.00
C101   C     0.77648   0.77893   0.96680   0.00000  Uiso   1.00
C102   C     0.79375   0.79621   0.93340   0.00000  Uiso   1.00
C103   C     0.81097   0.81342   0.96670   0.00000  Uiso   1.00
C104   C     0.81097   0.81342   0.03342   0.00000  Uiso   1.00
C105   C     0.79376   0.79621   0.06673   0.00000  Uiso   1.00
C106   C     0.77648   0.77893   0.03332   0.00000  Uiso   1.00
C107   C     0.82841   0.83084   0.06499   0.00000  Uiso   1.00
C108   C     0.84516   0.84759   0.03262   0.00000  Uiso   1.00
C109   C     0.84515   0.84759   0.96749   0.00000  Uiso   1.00
C110   C     0.82840   0.83085   0.93512   0.00000  Uiso   1.00
C111   C     0.75959   0.76204   0.93187   0.00000  Uiso   1.00
C112   C     0.75988   0.76233   0.86716   0.00000  Uiso   1.00
C113   C     0.77625   0.77872   0.83544   0.00000  Uiso   1.00
C114   C     0.79313   0.79560   0.86691   0.00000  Uiso   1.00
C115   C     0.75960   0.76204   0.06826   0.00000  Uiso   1.00
C116   C     0.75988   0.76233   0.13297   0.00000  Uiso   1.00
C117   C     0.77626   0.77872   0.16469   0.00000  Uiso   1.00
C118   C     0.79313   0.79560   0.13321   0.00000  Uiso   1.00
H29    H     0.82978   0.83219   0.11488   0.00000  Uiso   1.00
O29    O     0.86207   0.86449   0.06475   0.00000  Uiso   1.00
O30    O     0.86206   0.86450   0.93535   0.00000  Uiso   1.00
H30    H     0.82976   0.83221   0.88523   0.00000  Uiso   1.00
H31    H     0.74597   0.74842   0.95252   0.00000  Uiso   1.00
O31    O     0.74386   0.74632   0.83143   0.00000  Uiso   1.00
O32    O     0.77500   0.77747   0.77111   0.00000  Uiso   1.00
H32    H     0.80525   0.80773   0.83759   0.00000  Uiso   1.00
H33    H     0.74598   0.74841   0.04761   0.00000  Uiso   1.00
O33    O     0.74387   0.74632   0.16870   0.00000  Uiso   1.00
O34    O     0.77500   0.77748   0.22902   0.00000  Uiso   1.00
H34    H     0.80525   0.80774   0.16253   0.00000  Uiso   1.00
C119   C     0.20746   0.79623   0.93335   0.00000  Uiso   1.00
C120   C     0.22474   0.77896   0.96675   0.00000  Uiso   1.00
C121   C     0.22474   0.77896   0.03327   0.00000  Uiso   1.00
C122   C     0.20746   0.79623   0.06668   0.00000  Uiso   1.00
C123   C     0.19024   0.81344   0.03338   0.00000  Uiso   1.00
C124   C     0.19024   0.81344   0.96665   0.00000  Uiso   1.00
C125   C     0.20808   0.79562   0.13316   0.00000  Uiso   1.00
C126   C     0.22496   0.77874   0.16463   0.00000  Uiso   1.00
C127   C     0.24134   0.76236   0.13291   0.00000  Uiso   1.00
C128   C     0.24163   0.76207   0.06820   0.00000  Uiso   1.00
C129   C     0.20808   0.79562   0.86686   0.00000  Uiso   1.00
C130   C     0.22496   0.77874   0.83539   0.00000  Uiso   1.00
C131   C     0.24135   0.76237   0.86710   0.00000  Uiso   1.00
C132   C     0.24163   0.76208   0.93181   0.00000  Uiso   1.00
C133   C     0.17281   0.83087   0.93508   0.00000  Uiso   1.00
C134   C     0.15606   0.84760   0.96746   0.00000  Uiso   1.00
C135   C     0.15605   0.84760   0.03258   0.00000  Uiso   1.00
C136   C     0.17280   0.83086   0.06495   0.00000  Uiso   1.00
H35    H     0.19596   0.80775   0.16248   0.00000  Uiso   1.00
O35    O     0.22621   0.77750   0.22896   0.00000  Uiso   1.00
O36    O     0.25736   0.74635   0.16864   0.00000  Uiso   1.00
H36    H     0.25526   0.74845   0.04755   0.00000  Uiso   1.00
H37    H     0.19595   0.80774   0.83754   0.00000  Uiso   1.00
O37    O     0.22621   0.77749   0.77106   0.00000  Uiso   1.00
O38    O     0.25736   0.74636   0.83136   0.00000  Uiso   1.00
H38    H     0.25527   0.74846   0.95245   0.00000  Uiso   1.00
H39    H     0.17145   0.83223   0.88519   0.00000  Uiso   1.00
O39    O     0.13915   0.86451   0.93533   0.00000  Uiso   1.00
O40    O     0.13914   0.86450   0.06472   0.00000  Uiso   1.00
H40    H     0.17144   0.83221   0.11484   0.00000  Uiso   1.00
C137   C     0.70745   0.70992   0.56673   0.00000  Uiso   1.00
C138   C     0.72473   0.72719   0.53333   0.00000  Uiso   1.00
C139   C     0.72473   0.72720   0.46680   0.00000  Uiso   1.00
C140   C     0.70745   0.70993   0.43340   0.00000  Uiso   1.00
C141   C     0.69022   0.69273   0.46670   0.00000  Uiso   1.00
C142   C     0.69023   0.69272   0.53342   0.00000  Uiso   1.00
C143   C     0.70807   0.71054   0.36692   0.00000  Uiso   1.00
C144   C     0.72495   0.72742   0.33544   0.00000  Uiso   1.00
C145   C     0.74133   0.74380   0.36716   0.00000  Uiso   1.00
C146   C     0.74162   0.74408   0.43187   0.00000  Uiso   1.00
C147   C     0.70806   0.71054   0.63321   0.00000  Uiso   1.00
C148   C     0.72494   0.72741   0.66469   0.00000  Uiso   1.00
C149   C     0.74133   0.74379   0.63297   0.00000  Uiso   1.00
C150   C     0.74162   0.74407   0.56826   0.00000  Uiso   1.00
C151   C     0.67280   0.67527   0.56498   0.00000  Uiso   1.00
C152   C     0.65604   0.65855   0.53261   0.00000  Uiso   1.00
C153   C     0.65603   0.65857   0.46748   0.00000  Uiso   1.00
C154   C     0.67277   0.67531   0.43512   0.00000  Uiso   1.00
H41    H     0.69595   0.69841   0.33759   0.00000  Uiso   1.00
O41    O     0.72620   0.72866   0.27112   0.00000  Uiso   1.00
O42    O     0.75735   0.75981   0.33142   0.00000  Uiso   1.00
H42    H     0.75525   0.75770   0.45252   0.00000  Uiso   1.00
H43    H     0.69592   0.69842   0.66253   0.00000  Uiso   1.00
O43    O     0.72619   0.72866   0.72902   0.00000  Uiso   1.00
O44    O     0.75735   0.75980   0.66870   0.00000  Uiso   1.00
H44    H     0.75525   0.75770   0.54761   0.00000  Uiso   1.00
H45    H     0.67146   0.67390   0.61488   0.00000  Uiso   1.00
O45    O     0.63914   0.64163   0.56473   0.00000  Uiso   1.00
O46    O     0.63911   0.64168   0.43534   0.00000  Uiso   1.00
H46    H     0.67140   0.67397   0.38522   0.00000  Uiso   1.00
C155   C     0.27648   0.72721   0.53326   0.00000  Uiso   1.00
C156   C     0.29375   0.70993   0.56667   0.00000  Uiso   1.00
C157   C     0.31096   0.69271   0.53336   0.00000  Uiso   1.00
C158   C     0.31097   0.69273   0.46664   0.00000  Uiso   1.00
C159   C     0.29376   0.70994   0.43334   0.00000  Uiso   1.00
C160   C     0.27648   0.72722   0.46674   0.00000  Uiso   1.00
C161   C     0.32842   0.67531   0.43507   0.00000  Uiso   1.00
C162   C     0.34516   0.65856   0.46744   0.00000  Uiso   1.00
C163   C     0.34513   0.65853   0.53256   0.00000  Uiso   1.00
C164   C     0.32838   0.67526   0.56493   0.00000  Uiso   1.00
C165   C     0.25960   0.74410   0.56820   0.00000  Uiso   1.00
C166   C     0.25988   0.74381   0.63291   0.00000  Uiso   1.00
C167   C     0.27626   0.72743   0.66462   0.00000  Uiso   1.00
C168   C     0.29313   0.71055   0.63315   0.00000  Uiso   1.00
C169   C     0.25960   0.74411   0.43180   0.00000  Uiso   1.00
C170   C     0.25989   0.74382   0.36709   0.00000  Uiso   1.00
C171   C     0.27626   0.72743   0.33538   0.00000  Uiso   1.00
C172   C     0.29313   0.71054   0.36685   0.00000  Uiso   1.00
H47    H     0.32981   0.67398   0.38517   0.00000  Uiso   1.00
O47    O     0.36208   0.64166   0.43530   0.00000  Uiso   1.00
O48    O     0.36202   0.64161   0.56470   0.00000  Uiso   1.00
H48    H     0.32971   0.67388   0.61483   0.00000  Uiso   1.00
H49    H     0.24597   0.75773   0.54755   0.00000  Uiso   1.00
O49    O     0.24387   0.75983   0.66864   0.00000  Uiso   1.00
O50    O     0.27501   0.72868   0.72895   0.00000  Uiso   1.00
H50    H     0.30526   0.69842   0.66247   0.00000  Uiso   1.00
H51    H     0.24598   0.75774   0.45246   0.00000  Uiso   1.00
O51    O     0.24388   0.75983   0.33136   0.00000  Uiso   1.00
O52    O     0.27501   0.72867   0.27105   0.00000  Uiso   1.00
H52    H     0.30524   0.69840   0.33753   0.00000  Uiso   1.00
C173   C     0.27652   0.27889   0.46679   0.00000  Uiso   1.00
C174   C     0.29380   0.29616   0.43339   0.00000  Uiso   1.00
C175   C     0.31102   0.31337   0.46668   0.00000  Uiso   1.00
C176   C     0.31100   0.31338   0.53341   0.00000  Uiso   1.00
C177   C     0.29379   0.29617   0.56672   0.00000  Uiso   1.00
C178   C     0.27651   0.27889   0.53332   0.00000  Uiso   1.00
C179   C     0.32842   0.33084   0.56497   0.00000  Uiso   1.00
C180   C     0.34517   0.34757   0.53259   0.00000  Uiso   1.00
C181   C     0.34520   0.34754   0.46746   0.00000  Uiso   1.00
C182   C     0.32847   0.33078   0.43510   0.00000  Uiso   1.00
C183   C     0.25963   0.26201   0.43186   0.00000  Uiso   1.00
C184   C     0.25991   0.26230   0.36715   0.00000  Uiso   1.00
C185   C     0.27629   0.27868   0.33544   0.00000  Uiso   1.00
C186   C     0.29317   0.29555   0.36691   0.00000  Uiso   1.00
C187   C     0.25962   0.26202   0.56826   0.00000  Uiso   1.00
C188   C     0.25990   0.26231   0.63297   0.00000  Uiso   1.00
C189   C     0.27629   0.27868   0.66468   0.00000  Uiso   1.00
C190   C     0.29318   0.29555   0.63320   0.00000  Uiso   1.00
H53    H     0.32975   0.33223   0.61486   0.00000  Uiso   1.00
O53    O     0.36206   0.36450   0.56471   0.00000  Uiso   1.00
O54    O     0.36211   0.36443   0.43532   0.00000  Uiso   1.00
H54    H     0.32986   0.33210   0.38521   0.00000  Uiso   1.00
H55    H     0.24600   0.24838   0.45252   0.00000  Uiso   1.00
O55    O     0.24388   0.24630   0.33142   0.00000  Uiso   1.00
O56    O     0.27503   0.27744   0.27111   0.00000  Uiso   1.00
H56    H     0.30529   0.30769   0.33758   0.00000  Uiso   1.00
H57    H     0.24599   0.24839   0.54761   0.00000  Uiso   1.00
O57    O     0.24388   0.24631   0.66870   0.00000  Uiso   1.00
O58    O     0.27504   0.27744   0.72901   0.00000  Uiso   1.00
H58    H     0.30532   0.30767   0.66252   0.00000  Uiso   1.00
C191   C     0.70744   0.29621   0.56669   0.00000  Uiso   1.00
C192   C     0.72473   0.27894   0.53329   0.00000  Uiso   1.00
C193   C     0.72472   0.27894   0.46676   0.00000  Uiso   1.00
C194   C     0.70743   0.29620   0.43337   0.00000  Uiso   1.00
C195   C     0.69021   0.31341   0.46667   0.00000  Uiso   1.00
C196   C     0.69023   0.31342   0.53340   0.00000  Uiso   1.00
C197   C     0.70805   0.29560   0.36688   0.00000  Uiso   1.00
C198   C     0.72494   0.27873   0.33540   0.00000  Uiso   1.00
C199   C     0.74133   0.26235   0.36711   0.00000  Uiso   1.00
C200   C     0.74162   0.26206   0.43182   0.00000  Uiso   1.00
C201   C     0.70805   0.29559   0.63318   0.00000  Uiso   1.00
C202   C     0.72495   0.27872   0.66465   0.00000  Uiso   1.00
C203   C     0.74134   0.26236   0.63293   0.00000  Uiso   1.00
C204   C     0.74163   0.26207   0.56822   0.00000  Uiso   1.00
C205   C     0.67280   0.33086   0.56497   0.00000  Uiso   1.00
C206   C     0.65605   0.34759   0.53261   0.00000  Uiso   1.00
C207   C     0.65603   0.34757   0.46748   0.00000  Uiso   1.00
C208   C     0.67276   0.33083   0.43511   0.00000  Uiso   1.00
H59    H     0.69592   0.30772   0.33756   0.00000  Uiso   1.00
O59    O     0.72620   0.27749   0.27107   0.00000  Uiso   1.00
O60    O     0.75735   0.24635   0.33137   0.00000  Uiso   1.00
H60    H     0.75525   0.24844   0.45247   0.00000  Uiso   1.00
H61    H     0.69591   0.30769   0.66250   0.00000  Uiso   1.00
O61    O     0.72619   0.27747   0.72898   0.00000  Uiso   1.00
O62    O     0.75737   0.24636   0.66866   0.00000  Uiso   1.00
H62    H     0.75526   0.24845   0.54756   0.00000  Uiso   1.00
H63    H     0.67147   0.33224   0.61487   0.00000  Uiso   1.00
O63    O     0.63915   0.36451   0.56474   0.00000  Uiso   1.00
O64    O     0.63911   0.36447   0.43535   0.00000  Uiso   1.00
H64    H     0.67138   0.33216   0.38521   0.00000  Uiso   1.00
Cu1    Cu    0.25061   0.25305   0.25006   0.00000  Uiso   1.00
Cu2    Cu    0.75062   0.25310   0.25001   0.00000  Uiso   1.00
Cu3    Cu    0.75060   0.75307   0.25006   0.00000  Uiso   1.00
Cu4    Cu    0.25062   0.75309   0.25000   0.00000  Uiso   1.00
Cu5    Cu    0.25061   0.75309   0.75000   0.00000  Uiso   1.00
Cu6    Cu    0.25062   0.25305   0.75006   0.00000  Uiso   1.00
Cu7    Cu    0.75062   0.25309   0.75002   0.00000  Uiso   1.00
Cu8    Cu    0.75060   0.75306   0.75006   0.00000  Uiso   1.00
Zn1    Zn    0.12319   0.12573   0.00005   0.00000  Uiso   1.00
Zn2    Zn    0.87800   0.12573   1.00002   0.00000  Uiso   1.00
Zn3    Zn    0.87799   0.88042   0.00005   0.00000  Uiso   1.00
Zn4    Zn    0.12321   0.88043   1.00002   0.00000  Uiso   1.00
Zn5    Zn    0.62320   0.62572   0.50002   0.00000  Uiso   1.00
Zn6    Zn    0.37798   0.62571   0.50000   0.00000  Uiso   1.00
Zn7    Zn    0.37801   0.38040   0.50000   0.00000  Uiso   1.00
Zn8    Zn    0.62320   0.38042   0.50005   0.00000  Uiso   1.00
loop_
_geom_bond_atom_site_label_1
_geom_bond_atom_site_label_2
_geom_bond_distance
_geom_bond_site_symmetry_2
_ccdc_geom_bond_type
C1     C2      1.406   .     A
C1     C6      1.396   .     A
C1     H1      1.083   .     S
C2     C3      1.427   .     A
C2     O1      1.395   .     S
C3     C4      1.406   .     A
C3     O2      1.395   .     S
C4     C5      1.396   .     A
C4     H2      1.083   .     S
C5     C6      1.361   .     A
C5     C8      1.377   .     A
C6     C7      1.377   .     A
C7     N1      1.360   .     A
C7     N8      1.338   1_565 A
N1     C8      1.360   .     A
N1     Ni1     1.895   1_665 S
C8     N2      1.338   1_654 A
N2     C8      1.338   1_456 A
N2     C9      1.338   .     A
C9     N3      1.360   1_556 A
C9     C12     1.377   .     A
N3     C9      1.360   1_554 A
N3     C10     1.360   .     A
N3     Ni1     1.895   1_565 S
C10    C11     1.377   .     A
C10    N5      1.338   1_565 A
C11    C12     1.361   1_554 A
C11    C20     1.396   .     A
C12    C11     1.361   1_556 A
C12    C17     1.396   .     A
N4     C13     1.360   .     A
N4     C16     1.360   .     A
N4     Ni1     1.895   .     S
C13    N5      1.338   .     A
C13    C14     1.377   .     A
N5     C10     1.338   1_545 A
C14    C15     1.361   .     A
C14    C24     1.396   .     A
C15    C16     1.377   .     A
C15    C21     1.396   .     A
C16    N7      1.338   1_554 A
C17    C18     1.406   .     A
C17    H3      1.083   .     S
C18    C19     1.427   .     A
C18    O3      1.395   .     S
C19    C20     1.406   1_556 A
C19    O4      1.395   .     S
C20    C19     1.406   1_554 A
C20    H4      1.083   .     S
C21    C22     1.406   .     A
C21    H5      1.083   1_554 S
C22    C23     1.427   .     A
C22    O5      1.395   .     S
C23    C24     1.406   .     A
C23    O6      1.395   .     S
C24    H6      1.083   .     S
N6     C25     1.360   1_554 A
N6     C28     1.360   .     A
N6     Ni1     1.895   1_655 S
C25    N6      1.360   1_556 A
C25    N7      1.338   1_655 A
C25    C26     1.377   1_556 A
N7     C16     1.338   1_556 A
N7     C25     1.338   1_455 A
C26    C25     1.377   1_554 A
C26    C27     1.361   .     A
C26    C32     1.396   1_554 A
C27    C28     1.377   .     A
C27    C29     1.396   .     A
C28    N8      1.338   .     A
C29    C30     1.406   .     A
C29    H7      1.083   .     S
C30    C31     1.427   1_554 A
C30    O7      1.395   1_554 S
C31    C30     1.427   1_556 A
C31    C32     1.406   .     A
C31    O8      1.395   .     S
C32    C26     1.396   1_556 A
C32    H8      1.083   .     S
N8     C7      1.338   1_545 A
O1     Zn3     1.802   .     S
O2     Zn3     1.803   .     S
O3     Zn4     1.803   .     S
O4     Zn4     1.802   .     S
H5     C21     1.083   1_556 S
O5     Zn1     1.802   .     S
O6     Zn1     1.802   .     S
O7     C30     1.395   1_556 S
O7     Zn2     1.803   .     S
O8     Zn2     1.802   .     S
Ni1    N6      1.895   1_455 S
Ni1    N3      1.895   1_545 S
Ni1    N1      1.895   1_445 S
C33    C34     1.406   .     A
C33    C38     1.396   .     A
C33    H9      1.083   .     S
C34    C35     1.427   .     A
C34    O9      1.395   .     S
C35    C36     1.406   .     A
C35    O10     1.395   .     S
C36    C37     1.396   .     A
C36    H10     1.083   .     S
C37    C38     1.361   .     A
C37    C40     1.377   .     A
C38    C39     1.377   .     A
C39    N9      1.360   .     A
C39    N16     1.338   .     A
N9     C40     1.360   .     A
N9     Ni2     1.895   .     S
C40    N10     1.338   .     A
N10    C41     1.338   .     A
C41    N11     1.360   .     A
C41    C44     1.377   .     A
N11    C42     1.360   .     A
N11    Ni2     1.895   .     S
C42    C43     1.377   .     A
C42    N13     1.338   .     A
C43    C44     1.361   .     A
C43    C52     1.396   .     A
C44    C49     1.396   .     A
N12    C45     1.360   .     A
N12    C48     1.360   .     A
N12    Ni2     1.895   .     S
C45    N13     1.338   .     A
C45    C46     1.377   .     A
C46    C47     1.361   .     A
C46    C56     1.396   .     A
C47    C48     1.377   .     A
C47    C53     1.396   .     A
C48    N15     1.338   .     A
C49    C50     1.406   .     A
C49    H11     1.083   .     S
C50    C51     1.427   .     A
C50    O11     1.395   .     S
C51    C52     1.406   .     A
C51    O12     1.395   .     S
C52    H12     1.083   .     S
C53    C54     1.406   .     A
C53    H13     1.083   .     S
C54    C55     1.427   .     A
C54    O13     1.395   .     S
C55    C56     1.406   .     A
C55    O14     1.395   .     S
C56    H14     1.083   .     S
N14    C57     1.360   .     A
N14    C60     1.360   .     A
N14    Ni2     1.895   .     S
C57    N15     1.338   .     A
C57    C58     1.377   .     A
C58    C59     1.361   .     A
C58    C64     1.396   .     A
C59    C60     1.377   .     A
C59    C61     1.396   .     A
C60    N16     1.338   .     A
C61    C62     1.406   .     A
C61    H15     1.083   .     S
C62    C63     1.427   .     A
C62    O15     1.395   .     S
C63    C64     1.406   .     A
C63    O16     1.395   .     S
C64    H16     1.083   .     S
O9     Zn6     1.802   .     S
O10    Zn6     1.802   .     S
O11    Zn5     1.803   .     S
O12    Zn5     1.802   .     S
O13    Zn8     1.802   .     S
O14    Zn8     1.802   .     S
O15    Zn7     1.802   .     S
O16    Zn7     1.802   .     S
C65    C66     1.433   .     A
C65    C70     1.428   .     A
C65    C75     1.426   .     A
C66    C67     1.426   1_554 A
C66    C78     1.426   .     A
C67    C66     1.426   1_556 A
C67    C68     1.433   .     A
C67    C74     1.426   .     A
C68    C69     1.428   .     A
C68    C71     1.426   .     A
C69    C70     1.431   1_556 A
C69    C82     1.424   .     A
C70    C69     1.431   1_554 A
C70    C79     1.424   .     A
C71    C72     1.388   .     A
C71    H17     1.074   .     S
C72    C73     1.359   .     A
C72    O17     1.382   .     S
C73    C74     1.388   .     A
C73    O18     1.382   .     S
C74    H18     1.074   .     S
C75    C76     1.388   .     A
C75    H19     1.074   .     S
C76    C77     1.359   .     A
C76    O19     1.382   .     S
C77    C78     1.388   .     A
C77    O20     1.382   .     S
C78    H20     1.074   .     S
C79    C80     1.389   .     A
C79    H21     1.074   .     S
C80    C81     1.396   1_554 A
C80    O21     1.396   .     S
C81    C80     1.396   1_556 A
C81    C82     1.389   .     A
C81    O22     1.396   .     S
C82    H22     1.074   .     S
O17    Cu6     1.810   .     S
O18    Cu6     1.810   .     S
O19    Cu1     1.810   .     S
O20    Cu1     1.810   .     S
O21    Zn1     1.798   .     S
O22    Zn1     1.798   1_556 S
C83    C84     1.433   .     A
C83    C88     1.426   1_554 A
C83    C93     1.426   .     A
C84    C85     1.428   .     A
C84    C96     1.426   .     A
C85    C86     1.431   1_554 A
C85    C92     1.424   .     A
C86    C85     1.431   1_556 A
C86    C87     1.428   .     A
C86    C89     1.424   .     A
C87    C88     1.433   .     A
C87    C100    1.426   .     A
C88    C83     1.426   1_556 A
C88    C97     1.426   .     A
C89    C90     1.389   .     A
C89    H23     1.074   .     S
C90    C91     1.396   1_556 A
C90    O23     1.396   .     S
C91    C90     1.396   1_554 A
C91    C92     1.389   .     A
C91    O24     1.396   .     S
C92    H24     1.074   .     S
C93    C94     1.388   .     A
C93    H25     1.074   .     S
C94    C95     1.359   .     A
C94    O25     1.382   .     S
C95    C96     1.388   .     A
C95    O26     1.382   .     S
C96    H26     1.074   .     S
C97    C98     1.388   .     A
C97    H27     1.074   .     S
C98    C99     1.359   .     A
C98    O27     1.382   .     S
C99    C100    1.388   .     A
C99    O28     1.382   .     S
C100   H28     1.074   .     S
O23    Zn2     1.798   .     S
O24    Zn2     1.798   1_554 S
O25    Cu2     1.810   .     S
O26    Cu2     1.810   .     S
O27    Cu7     1.810   .     S
O28    Cu7     1.810   .     S
C101   C102    1.433   .     A
C101   C106    1.426   1_556 A
C101   C111    1.426   .     A
C102   C103    1.428   .     A
C102   C114    1.426   .     A
C103   C104    1.431   1_556 A
C103   C110    1.424   .     A
C104   C103    1.431   1_554 A
C104   C105    1.428   .     A
C104   C107    1.424   .     A
C105   C106    1.433   .     A
C105   C118    1.426   .     A
C106   C101    1.426   1_554 A
C106   C115    1.426   .     A
C107   C108    1.389   .     A
C107   H29     1.074   .     S
C108   C109    1.396   1_554 A
C108   O29     1.396   .     S
C109   C108    1.396   1_556 A
C109   C110    1.389   .     A
C109   O30     1.396   .     S
C110   H30     1.074   .     S
C111   C112    1.388   .     A
C111   H31     1.074   .     S
C112   C113    1.359   .     A
C112   O31     1.382   .     S
C113   C114    1.388   .     A
C113   O32     1.382   .     S
C114   H32     1.074   .     S
C115   C116    1.388   .     A
C115   H33     1.074   .     S
C116   C117    1.359   .     A
C116   O33     1.382   .     S
C117   C118    1.388   .     A
C117   O34     1.382   .     S
C118   H34     1.074   .     S
O29    Zn3     1.798   .     S
O30    Zn3     1.798   1_556 S
O31    Cu8     1.810   .     S
O32    Cu8     1.810   .     S
O33    Cu3     1.810   .     S
O34    Cu3     1.810   .     S
C119   C120    1.433   .     A
C119   C124    1.428   .     A
C119   C129    1.426   .     A
C120   C121    1.426   1_556 A
C120   C132    1.426   .     A
C121   C120    1.426   1_554 A
C121   C122    1.433   .     A
C121   C128    1.426   .     A
C122   C123    1.428   .     A
C122   C125    1.426   .     A
C123   C124    1.431   1_554 A
C123   C136    1.424   .     A
C124   C123    1.431   1_556 A
C124   C133    1.424   .     A
C125   C126    1.388   .     A
C125   H35     1.074   .     S
C126   C127    1.359   .     A
C126   O35     1.382   .     S
C127   C128    1.388   .     A
C127   O36     1.382   .     S
C128   H36     1.074   .     S
C129   C130    1.388   .     A
C129   H37     1.074   .     S
C130   C131    1.359   .     A
C130   O37     1.382   .     S
C131   C132    1.388   .     A
C131   O38     1.382   .     S
C132   H38     1.074   .     S
C133   C134    1.389   .     A
C133   H39     1.074   .     S
C134   C135    1.396   1_556 A
C134   O39     1.396   .     S
C135   C134    1.396   1_554 A
C135   C136    1.389   .     A
C135   O40     1.396   .     S
C136   H40     1.074   .     S
O35    Cu4     1.810   .     S
O36    Cu4     1.810   .     S
O37    Cu5     1.810   .     S
O38    Cu5     1.810   .     S
O39    Zn4     1.798   .     S
O40    Zn4     1.798   1_554 S
C137   C138    1.433   .     A
C137   C142    1.428   .     A
C137   C147    1.426   .     A
C138   C139    1.426   .     A
C138   C150    1.426   .     A
C139   C140    1.433   .     A
C139   C146    1.426   .     A
C140   C141    1.428   .     A
C140   C143    1.426   .     A
C141   C142    1.431   .     A
C141   C154    1.424   .     A
C142   C151    1.424   .     A
C143   C144    1.388   .     A
C143   H41     1.074   .     S
C144   C145    1.359   .     A
C144   O41     1.382   .     S
C145   C146    1.388   .     A
C145   O42     1.382   .     S
C146   H42     1.074   .     S
C147   C148    1.388   .     A
C147   H43     1.074   .     S
C148   C149    1.359   .     A
C148   O43     1.382   .     S
C149   C150    1.388   .     A
C149   O44     1.382   .     S
C150   H44     1.074   .     S
C151   C152    1.389   .     A
C151   H45     1.074   .     S
C152   C153    1.396   .     A
C152   O45     1.396   .     S
C153   C154    1.389   .     A
C153   O46     1.396   .     S
C154   H46     1.074   .     S
O41    Cu3     1.810   .     S
O42    Cu3     1.810   .     S
O43    Cu8     1.810   .     S
O44    Cu8     1.810   .     S
O45    Zn5     1.798   .     S
O46    Zn5     1.798   .     S
C155   C156    1.433   .     A
C155   C160    1.426   .     A
C155   C165    1.426   .     A
C156   C157    1.428   .     A
C156   C168    1.426   .     A
C157   C158    1.431   .     A
C157   C164    1.424   .     A
C158   C159    1.428   .     A
C158   C161    1.424   .     A
C159   C160    1.433   .     A
C159   C172    1.426   .     A
C160   C169    1.426   .     A
C161   C162    1.389   .     A
C161   H47     1.074   .     S
C162   C163    1.396   .     A
C162   O47     1.396   .     S
C163   C164    1.389   .     A
C163   O48     1.396   .     S
C164   H48     1.074   .     S
C165   C166    1.388   .     A
C165   H49     1.074   .     S
C166   C167    1.359   .     A
C166   O49     1.382   .     S
C167   C168    1.388   .     A
C167   O50     1.382   .     S
C168   H50     1.074   .     S
C169   C170    1.388   .     A
C169   H51     1.074   .     S
C170   C171    1.359   .     A
C170   O51     1.382   .     S
C171   C172    1.388   .     A
C171   O52     1.382   .     S
C172   H52     1.074   .     S
O47    Zn6     1.798   .     S
O48    Zn6     1.798   .     S
O49    Cu5     1.810   .     S
O50    Cu5     1.810   .     S
O51    Cu4     1.810   .     S
O52    Cu4     1.810   .     S
C173   C174    1.433   .     A
C173   C178    1.426   .     A
C173   C183    1.426   .     A
C174   C175    1.428   .     A
C174   C186    1.426   .     A
C175   C176    1.431   .     A
C175   C182    1.424   .     A
C176   C177    1.428   .     A
C176   C179    1.424   .     A
C177   C178    1.433   .     A
C177   C190    1.426   .     A
C178   C187    1.426   .     A
C179   C180    1.389   .     A
C179   H53     1.074   .     S
C180   C181    1.396   .     A
C180   O53     1.396   .     S
C181   C182    1.389   .     A
C181   O54     1.396   .     S
C182   H54     1.074   .     S
C183   C184    1.388   .     A
C183   H55     1.074   .     S
C184   C185    1.359   .     A
C184   O55     1.382   .     S
C185   C186    1.388   .     A
C185   O56     1.382   .     S
C186   H56     1.074   .     S
C187   C188    1.388   .     A
C187   H57     1.074   .     S
C188   C189    1.359   .     A
C188   O57     1.382   .     S
C189   C190    1.388   .     A
C189   O58     1.382   .     S
C190   H58     1.074   .     S
O53    Zn7     1.798   .     S
O54    Zn7     1.798   .     S
O55    Cu1     1.810   .     S
O56    Cu1     1.810   .     S
O57    Cu6     1.810   .     S
O58    Cu6     1.810   .     S
C191   C192    1.433   .     A
C191   C196    1.428   .     A
C191   C201    1.426   .     A
C192   C193    1.426   .     A
C192   C204    1.426   .     A
C193   C194    1.433   .     A
C193   C200    1.426   .     A
C194   C195    1.428   .     A
C194   C197    1.426   .     A
C195   C196    1.431   .     A
C195   C208    1.424   .     A
C196   C205    1.424   .     A
C197   C198    1.388   .     A
C197   H59     1.074   .     S
C198   C199    1.359   .     A
C198   O59     1.382   .     S
C199   C200    1.388   .     A
C199   O60     1.382   .     S
C200   H60     1.074   .     S
C201   C202    1.388   .     A
C201   H61     1.074   .     S
C202   C203    1.359   .     A
C202   O61     1.382   .     S
C203   C204    1.388   .     A
C203   O62     1.382   .     S
C204   H62     1.074   .     S
C205   C206    1.389   .     A
C205   H63     1.074   .     S
C206   C207    1.396   .     A
C206   O63     1.396   .     S
C207   C208    1.389   .     A
C207   O64     1.396   .     S
C208   H64     1.074   .     S
O59    Cu2     1.810   .     S
O60    Cu2     1.810   .     S
O61    Cu7     1.810   .     S
O62    Cu7     1.810   .     S
O63    Zn8     1.798   .     S
O64    Zn8     1.798   .     S
Zn1    O22     1.798   1_554 S
Zn2    O24     1.798   1_556 S
Zn3    O30     1.798   1_554 S
Zn4    O40     1.798   1_556 S
