data_hof-TN_O-PcM_O-Zntet
_audit_creation_date              2021-11-06
_audit_creation_method            'Materials Studio'
_symmetry_space_group_name_H-M    'P1'
_symmetry_Int_Tables_number       1
_symmetry_cell_setting            triclinic
loop_
_symmetry_equiv_pos_as_xyz
  x,y,z
_cell_length_a                    61.0942
_cell_length_b                    61.1462
_cell_length_c                    29.8496
_cell_angle_alpha                 90.0419
_cell_angle_beta                  89.9788
_cell_angle_gamma                 90.0113
loop_
_atom_site_label
_atom_site_type_symbol
_atom_site_fract_x
_atom_site_fract_y
_atom_site_fract_z
_atom_site_U_iso_or_equiv
_atom_site_adp_type
_atom_site_occupancy
C1     C     0.92319   0.96015   0.00222   0.00000  Uiso   1.00
C2     C     0.91734   0.93790   0.00084   0.00000  Uiso   1.00
C3     C     0.93382   0.92145  -0.00236   0.00000  Uiso   1.00
C4     C     0.95606   0.92732  -0.00382   0.00000  Uiso   1.00
C5     C     0.96117   0.94956  -0.00229   0.00000  Uiso   1.00
C6     C     0.94545   0.96527   0.00058   0.00000  Uiso   1.00
C7     C     0.95627   0.98502   0.00127   0.00000  Uiso   1.00
N1     N     0.97834   0.98239  -0.00072   0.00000  Uiso   1.00
C8     C     0.98095   0.96034  -0.00282   0.00000  Uiso   1.00
N2     N     0.00024   0.94999  -0.00366   0.00000  Uiso   1.00
C9     C     0.01955   0.96029  -0.00229   0.00000  Uiso   1.00
N3     N     0.02220   0.98235  -0.00041   0.00000  Uiso   1.00
C10    C     0.04428   0.98493   0.00177   0.00000  Uiso   1.00
C11    C     0.05504   0.96516   0.00141   0.00000  Uiso   1.00
C12    C     0.03930   0.94947   0.99865   0.00000  Uiso   1.00
N4     N     0.02226   0.02617  -0.00054   0.00000  Uiso   1.00
C13    C     0.04434   0.02352   0.00146   0.00000  Uiso   1.00
N5     N     0.05464   0.00422   0.00276   0.00000  Uiso   1.00
C14    C     0.05517   0.04326   0.00079   0.00000  Uiso   1.00
C15    C     0.03947   0.05899  -0.00195   0.00000  Uiso   1.00
C16    C     0.01968   0.04822  -0.00255   0.00000  Uiso   1.00
C17    C     0.04436   0.92722   0.99742   0.00000  Uiso   1.00
C18    C     0.06659   0.92133   0.99898   0.00000  Uiso   1.00
C19    C     0.08310   0.93777   1.00190   0.00000  Uiso   1.00
C20    C     0.07729   0.96001   0.00306   0.00000  Uiso   1.00
C21    C     0.04463   0.08122  -0.00337   0.00000  Uiso   1.00
C22    C     0.06689   0.08704  -0.00201   0.00000  Uiso   1.00
C23    C     0.08334   0.07055   0.00095   0.00000  Uiso   1.00
C24    C     0.07744   0.04833   0.00227   0.00000  Uiso   1.00
N6     N     0.97840   0.02621  -0.00067   0.00000  Uiso   1.00
C25    C     0.98105   0.04827  -0.00254   0.00000  Uiso   1.00
N7     N     0.00038   0.05857   0.99639   0.00000  Uiso   1.00
C26    C     0.96128   0.05908  -0.00188   0.00000  Uiso   1.00
C27    C     0.94555   0.04338   0.00073   0.00000  Uiso   1.00
C28    C     0.95632   0.02361   0.00129   0.00000  Uiso   1.00
C29    C     0.92329   0.04849   0.00212   0.00000  Uiso   1.00
C30    C     0.91744   0.07072   0.00088   0.00000  Uiso   1.00
C31    C     0.93393   0.08719   0.99815   0.00000  Uiso   1.00
C32    C     0.95619   0.08132   0.99682   0.00000  Uiso   1.00
N8     N     0.94596   0.00433   0.00239   0.00000  Uiso   1.00
H1     H     0.91087   0.97281   0.00463   0.00000  Uiso   1.00
O1     O     0.89538   0.93169   0.00264   0.00000  Uiso   1.00
O2     O     0.92765   0.89951  -0.00399   0.00000  Uiso   1.00
H2     H     0.96875   0.91502  -0.00612   0.00000  Uiso   1.00
H3     H     0.03165   0.91493   0.99521   0.00000  Uiso   1.00
O3     O     0.07274   0.89937   0.99755   0.00000  Uiso   1.00
O4     O     0.10505   0.93155   1.00350   0.00000  Uiso   1.00
H4     H     0.08964   0.97267   0.00517   0.00000  Uiso   1.00
H5     H     0.03196   0.09356   0.99450   0.00000  Uiso   1.00
O5     O     0.07312   0.10898  -0.00354   0.00000  Uiso   1.00
O6     O     0.10531   0.07671   0.00255   0.00000  Uiso   1.00
H6     H     0.08974   0.03563   0.00446   0.00000  Uiso   1.00
H7     H     0.91095   0.03581   0.00413   0.00000  Uiso   1.00
O7     O     0.89548   0.07690   1.00234   0.00000  Uiso   1.00
O8     O     0.92775   0.10913   0.99678   0.00000  Uiso   1.00
H8     H     0.96888   0.09364   0.99478   0.00000  Uiso   1.00
Ni1    Ni    0.00030   0.00428  -0.00059   0.00000  Uiso   1.00
C33    C     0.42326   0.54844   0.49785   0.00000  Uiso   1.00
C34    C     0.41740   0.57067   0.49919   0.00000  Uiso   1.00
C35    C     0.43386   0.58712   0.50300   0.00000  Uiso   1.00
C36    C     0.45608   0.58126   0.50515   0.00000  Uiso   1.00
C37    C     0.46119   0.55903   0.50369   0.00000  Uiso   1.00
C38    C     0.44549   0.54333   0.50014   0.00000  Uiso   1.00
C39    C     0.45630   0.52358   0.49951   0.00000  Uiso   1.00
N9     N     0.47835   0.52620   0.50216   0.00000  Uiso   1.00
C40    C     0.48096   0.54825   0.50469   0.00000  Uiso   1.00
N10    N     0.50025   0.55858   0.50609   0.00000  Uiso   1.00
C41    C     0.51957   0.54827   0.50468   0.00000  Uiso   1.00
N11    N     0.52220   0.52624   0.50209   0.00000  Uiso   1.00
C42    C     0.54426   0.52365   0.49930   0.00000  Uiso   1.00
C43    C     0.55503   0.54342   0.49992   0.00000  Uiso   1.00
C44    C     0.53932   0.55909   0.50368   0.00000  Uiso   1.00
N12    N     0.52222   0.48243   0.50201   0.00000  Uiso   1.00
C45    C     0.54429   0.48507   0.49947   0.00000  Uiso   1.00
N13    N     0.55460   0.50437   0.49790   0.00000  Uiso   1.00
C46    C     0.55510   0.46532   0.50023   0.00000  Uiso   1.00
C47    C     0.53940   0.44961   0.50364   0.00000  Uiso   1.00
C48    C     0.51962   0.46039   0.50445   0.00000  Uiso   1.00
C49    C     0.54439   0.58132   0.50550   0.00000  Uiso   1.00
C50    C     0.56661   0.58723   0.50339   0.00000  Uiso   1.00
C51    C     0.58309   0.57083   0.49917   0.00000  Uiso   1.00
C52    C     0.57726   0.54859   0.49759   0.00000  Uiso   1.00
C53    C     0.54453   0.42739   0.50530   0.00000  Uiso   1.00
C54    C     0.56677   0.42154   0.50346   0.00000  Uiso   1.00
C55    C     0.58322   0.43801   0.49980   0.00000  Uiso   1.00
C56    C     0.57735   0.46023   0.49829   0.00000  Uiso   1.00
N14    N     0.47838   0.48240   0.50198   0.00000  Uiso   1.00
C57    C     0.48100   0.46035   0.50431   0.00000  Uiso   1.00
N15    N     0.50031   0.45005   0.50571   0.00000  Uiso   1.00
C58    C     0.46123   0.44955   0.50335   0.00000  Uiso   1.00
C59    C     0.44553   0.46524   0.49999   0.00000  Uiso   1.00
C60    C     0.45632   0.48500   0.49940   0.00000  Uiso   1.00
C61    C     0.42328   0.46014   0.49799   0.00000  Uiso   1.00
C62    C     0.41741   0.43792   0.49938   0.00000  Uiso   1.00
C63    C     0.43386   0.42146   0.50303   0.00000  Uiso   1.00
C64    C     0.45611   0.42732   0.50491   0.00000  Uiso   1.00
N16    N     0.44598   0.50428   0.49799   0.00000  Uiso   1.00
H9     H     0.41096   0.53577   0.49495   0.00000  Uiso   1.00
O9     O     0.39546   0.57686   0.49677   0.00000  Uiso   1.00
O10    O     0.42767   0.60906   0.50458   0.00000  Uiso   1.00
H10    H     0.46875   0.59357   0.50786   0.00000  Uiso   1.00
H11    H     0.53171   0.59359   0.50856   0.00000  Uiso   1.00
O11    O     0.57277   0.60917   0.50543   0.00000  Uiso   1.00
O12    O     0.60500   0.57708   0.49661   0.00000  Uiso   1.00
H12    H     0.58958   0.53595   0.49452   0.00000  Uiso   1.00
H13    H     0.53186   0.41508   0.50795   0.00000  Uiso   1.00
O13    O     0.57298   0.39961   0.50516   0.00000  Uiso   1.00
O14    O     0.60517   0.43184   0.49764   0.00000  Uiso   1.00
H14    H     0.58965   0.47290   0.49558   0.00000  Uiso   1.00
H15    H     0.41097   0.47281   0.49537   0.00000  Uiso   1.00
O15    O     0.39546   0.43174   0.49718   0.00000  Uiso   1.00
O16    O     0.42765   0.39953   0.50474   0.00000  Uiso   1.00
H16    H     0.46877   0.41501   0.50757   0.00000  Uiso   1.00
Ni2    Ni    0.50029   0.50432   0.50207   0.00000  Uiso   1.00
C65    C     0.18624   0.18996   0.02360   0.00000  Uiso   1.00
C66    C     0.18631   0.18988   0.97582   0.00000  Uiso   1.00
C67    C     0.20010   0.20469   0.95194   0.00000  Uiso   1.00
C68    C     0.21502   0.21833   0.97582   0.00000  Uiso   1.00
C69    C     0.21467   0.21869   0.02359   0.00000  Uiso   1.00
C70    C     0.20105   0.20377   0.04748   0.00000  Uiso   1.00
C71    C     0.23033   0.23095   0.95098   0.00000  Uiso   1.00
C72    C     0.22974   0.23183   0.90427   0.00000  Uiso   1.00
C73    C     0.21373   0.21985   0.88086   0.00000  Uiso   1.00
C74    C     0.19916   0.20660   0.90452   0.00000  Uiso   1.00
C75    C     0.17084   0.17647   0.04624   0.00000  Uiso   1.00
C76    C     0.15720   0.16201   0.02314   0.00000  Uiso   1.00
C77    C     0.15840   0.16082   0.97621   0.00000  Uiso   1.00
C78    C     0.17283   0.17449   0.95315   0.00000  Uiso   1.00
C79    C     0.20297   0.20287   0.09491   0.00000  Uiso   1.00
C80    C     0.21618   0.21751   0.11856   0.00000  Uiso   1.00
C81    C     0.22814   0.23351   0.09510   0.00000  Uiso   1.00
C82    C     0.22727   0.23403   0.04840   0.00000  Uiso   1.00
C83    C     0.24101   0.24869   0.11894   0.00000  Uiso   1.00
C84    C     0.24182   0.24755   0.16560   0.00000  Uiso   1.00
C85    C     0.23031   0.23184   0.18845   0.00000  Uiso   1.00
C86    C     0.21739   0.21665   0.16566   0.00000  Uiso   1.00
C87    C     0.21277   0.22111   0.83377   0.00000  Uiso   1.00
C88    C     0.22787   0.23411   0.81095   0.00000  Uiso   1.00
C89    C     0.24361   0.24562   0.83376   0.00000  Uiso   1.00
C90    C     0.24485   0.24476   0.88040   0.00000  Uiso   1.00
H17    H     0.24339   0.23987   0.96693   0.00000  Uiso   1.00
H18    H     0.18693   0.19835   0.88480   0.00000  Uiso   1.00
H19    H     0.16862   0.17715   0.08199   0.00000  Uiso   1.00
H20    H     0.17349   0.17227   0.91740   0.00000  Uiso   1.00
H21    H     0.19474   0.19063   0.11463   0.00000  Uiso   1.00
H22    H     0.23616   0.24709   0.03241   0.00000  Uiso   1.00
H23    H     0.25035   0.26116   0.10163   0.00000  Uiso   1.00
O17    O     0.25401   0.26183   0.19139   0.00000  Uiso   1.00
O18    O     0.23225   0.23217   0.23454   0.00000  Uiso   1.00
H24    H     0.20833   0.20449   0.18447   0.00000  Uiso   1.00
H25    H     0.20059   0.21204   0.81501   0.00000  Uiso   1.00
O19    O     0.22806   0.23615   0.76488   0.00000  Uiso   1.00
O20    O     0.25780   0.25788   0.80796   0.00000  Uiso   1.00
H26    H     0.25733   0.25411   0.89767   0.00000  Uiso   1.00
C91    C     0.14494   0.14606   0.95279   0.00000  Uiso   1.00
C92    C     0.13033   0.13267   0.97607   0.00000  Uiso   1.00
C93    C     0.12912   0.13387   0.02317   0.00000  Uiso   1.00
C94    C     0.14246   0.14851   0.04652   0.00000  Uiso   1.00
H27    H     0.14565   0.14499   0.91657   0.00000  Uiso   1.00
O21    O     0.11681   0.11810   0.95306   0.00000  Uiso   1.00
O22    O     0.11454   0.12033   0.04611   0.00000  Uiso   1.00
H28    H     0.14137   0.14922   0.08273   0.00000  Uiso   1.00
C95    C     0.78571   0.21835   0.02369   0.00000  Uiso   1.00
C96    C     0.79936   0.20348   0.04760   0.00000  Uiso   1.00
C97    C     0.81422   0.18971   0.02371   0.00000  Uiso   1.00
C98    C     0.81425   0.18972   0.97591   0.00000  Uiso   1.00
C99    C     0.80042   0.20449   0.95204   0.00000  Uiso   1.00
C100   C     0.78540   0.21801   0.97592   0.00000  Uiso   1.00
C101   C     0.82785   0.17444   0.95322   0.00000  Uiso   1.00
C102   C     0.84230   0.16080   0.97628   0.00000  Uiso   1.00
C103   C     0.84335   0.16186   0.02323   0.00000  Uiso   1.00
C104   C     0.82958   0.17619   0.04635   0.00000  Uiso   1.00
C105   C     0.77305   0.23365   0.04848   0.00000  Uiso   1.00
C106   C     0.77214   0.23314   0.09519   0.00000  Uiso   1.00
C107   C     0.78417   0.21721   0.11868   0.00000  Uiso   1.00
C108   C     0.79745   0.20261   0.09505   0.00000  Uiso   1.00
C109   C     0.77003   0.23054   0.95109   0.00000  Uiso   1.00
C110   C     0.77067   0.23149   0.90439   0.00000  Uiso   1.00
C111   C     0.78676   0.21963   0.88096   0.00000  Uiso   1.00
C112   C     0.80141   0.20646   0.90462   0.00000  Uiso   1.00
C113   C     0.78773   0.22092   0.83387   0.00000  Uiso   1.00
C114   C     0.77258   0.23387   0.81107   0.00000  Uiso   1.00
C115   C     0.75681   0.24532   0.83391   0.00000  Uiso   1.00
C116   C     0.75553   0.24438   0.88055   0.00000  Uiso   1.00
C117   C     0.85809   0.14837   0.04661   0.00000  Uiso   1.00
C118   C     0.87160   0.13390   0.02324   0.00000  Uiso   1.00
C119   C     0.87053   0.13283   0.97611   0.00000  Uiso   1.00
C120   C     0.85592   0.14619   0.95282   0.00000  Uiso   1.00
H29    H     0.82729   0.17230   0.91744   0.00000  Uiso   1.00
H30    H     0.83168   0.17673   0.08213   0.00000  Uiso   1.00
H31    H     0.76414   0.24669   0.03247   0.00000  Uiso   1.00
H32    H     0.80575   0.19047   0.11483   0.00000  Uiso   1.00
H33    H     0.75688   0.23933   0.96706   0.00000  Uiso   1.00
H34    H     0.81372   0.19833   0.88491   0.00000  Uiso   1.00
H35    H     0.79995   0.21191   0.81508   0.00000  Uiso   1.00
O23    O     0.77240   0.23596   0.76500   0.00000  Uiso   1.00
O24    O     0.74263   0.25761   0.80815   0.00000  Uiso   1.00
H36    H     0.74300   0.25367   0.89784   0.00000  Uiso   1.00
H37    H     0.85905   0.14897   0.08284   0.00000  Uiso   1.00
O25    O     0.88618   0.12039   0.04618   0.00000  Uiso   1.00
O26    O     0.88418   0.11838   0.95309   0.00000  Uiso   1.00
H38    H     0.85532   0.14522   0.91659   0.00000  Uiso   1.00
C121   C     0.78296   0.21638   0.16580   0.00000  Uiso   1.00
C122   C     0.76999   0.23155   0.18857   0.00000  Uiso   1.00
C123   C     0.75840   0.24718   0.16568   0.00000  Uiso   1.00
C124   C     0.75920   0.24827   0.11900   0.00000  Uiso   1.00
H39    H     0.79208   0.20429   0.18463   0.00000  Uiso   1.00
O27    O     0.76808   0.23195   0.23467   0.00000  Uiso   1.00
O28    O     0.74618   0.26145   0.19144   0.00000  Uiso   1.00
H40    H     0.74981   0.26068   0.10165   0.00000  Uiso   1.00
C125   C     0.78660   0.78929   0.02377   0.00000  Uiso   1.00
C126   C     0.80024   0.80419   0.04764   0.00000  Uiso   1.00
C127   C     0.81500   0.81804   0.02373   0.00000  Uiso   1.00
C128   C     0.81491   0.81808   0.97595   0.00000  Uiso   1.00
C129   C     0.80115   0.80323   0.95212   0.00000  Uiso   1.00
C130   C     0.78617   0.78970   0.97602   0.00000  Uiso   1.00
C131   C     0.82829   0.83353   0.95323   0.00000  Uiso   1.00
C132   C     0.84265   0.84729   0.97625   0.00000  Uiso   1.00
C133   C     0.84392   0.84609   0.02317   0.00000  Uiso   1.00
C134   C     0.83036   0.83158   0.04632   0.00000  Uiso   1.00
C135   C     0.77408   0.77388   0.04855   0.00000  Uiso   1.00
C136   C     0.77324   0.77440   0.09528   0.00000  Uiso   1.00
C137   C     0.78518   0.79043   0.11873   0.00000  Uiso   1.00
C138   C     0.79836   0.80509   0.09508   0.00000  Uiso   1.00
C139   C     0.77069   0.77726   0.95123   0.00000  Uiso   1.00
C140   C     0.77125   0.77635   0.90451   0.00000  Uiso   1.00
C141   C     0.78747   0.78805   0.88108   0.00000  Uiso   1.00
C142   C     0.80217   0.80119   0.90473   0.00000  Uiso   1.00
C143   C     0.78848   0.78668   0.83401   0.00000  Uiso   1.00
C144   C     0.77316   0.77392   0.81118   0.00000  Uiso   1.00
C145   C     0.75719   0.76273   0.83397   0.00000  Uiso   1.00
C146   C     0.75593   0.76367   0.88063   0.00000  Uiso   1.00
C147   C     0.85863   0.85966   0.04650   0.00000  Uiso   1.00
C148   C     0.87186   0.87438   0.02312   0.00000  Uiso   1.00
C149   C     0.87055   0.87561   0.97603   0.00000  Uiso   1.00
C150   C     0.85599   0.86215   0.95280   0.00000  Uiso   1.00
H41    H     0.82754   0.83574   0.91748   0.00000  Uiso   1.00
H42    H     0.83262   0.83093   0.08206   0.00000  Uiso   1.00
H43    H     0.76522   0.76081   0.03248   0.00000  Uiso   1.00
H44    H     0.80657   0.81734   0.11479   0.00000  Uiso   1.00
H45    H     0.75751   0.76855   0.96729   0.00000  Uiso   1.00
H46    H     0.81455   0.80926   0.88508   0.00000  Uiso   1.00
H47    H     0.80084   0.79549   0.81526   0.00000  Uiso   1.00
O29    O     0.77296   0.77184   0.76511   0.00000  Uiso   1.00
O30    O     0.74280   0.75071   0.80815   0.00000  Uiso   1.00
H48    H     0.74327   0.75457   0.89790   0.00000  Uiso   1.00
H49    H     0.85979   0.85894   0.08269   0.00000  Uiso   1.00
O31    O     0.88640   0.88798   0.04601   0.00000  Uiso   1.00
O32    O     0.88393   0.89029   0.95300   0.00000  Uiso   1.00
H50    H     0.85520   0.86324   0.91659   0.00000  Uiso   1.00
C151   C     0.78394   0.79135   0.16583   0.00000  Uiso   1.00
C152   C     0.77096   0.77621   0.18864   0.00000  Uiso   1.00
C153   C     0.75946   0.76048   0.16580   0.00000  Uiso   1.00
C154   C     0.76037   0.75923   0.11914   0.00000  Uiso   1.00
H51    H     0.79297   0.80354   0.18462   0.00000  Uiso   1.00
O33    O     0.76887   0.77603   0.23471   0.00000  Uiso   1.00
O34    O     0.74711   0.74635   0.19159   0.00000  Uiso   1.00
H52    H     0.75107   0.74673   0.10183   0.00000  Uiso   1.00
C155   C     0.18572   0.81825   0.97601   0.00000  Uiso   1.00
C156   C     0.18572   0.81822   0.02381   0.00000  Uiso   1.00
C157   C     0.20052   0.80440   0.04764   0.00000  Uiso   1.00
C158   C     0.21414   0.78950   0.02368   0.00000  Uiso   1.00
C159   C     0.21446   0.78985   0.97591   0.00000  Uiso   1.00
C160   C     0.19950   0.80343   0.95208   0.00000  Uiso   1.00
C161   C     0.22678   0.77418   0.04843   0.00000  Uiso   1.00
C162   C     0.22774   0.77477   0.09514   0.00000  Uiso   1.00
C163   C     0.21577   0.79075   0.11866   0.00000  Uiso   1.00
C164   C     0.20246   0.80530   0.09508   0.00000  Uiso   1.00
C165   C     0.17224   0.83365   0.95342   0.00000  Uiso   1.00
C166   C     0.15786   0.84736   0.97658   0.00000  Uiso   1.00
C167   C     0.15675   0.84622   0.02352   0.00000  Uiso   1.00
C168   C     0.17040   0.83176   0.04653   0.00000  Uiso   1.00
C169   C     0.19853   0.80148   0.90465   0.00000  Uiso   1.00
C170   C     0.21319   0.78832   0.88093   0.00000  Uiso   1.00
C171   C     0.22927   0.77643   0.90433   0.00000  Uiso   1.00
C172   C     0.22983   0.77732   0.95104   0.00000  Uiso   1.00
C173   C     0.24449   0.76364   0.88045   0.00000  Uiso   1.00
C174   C     0.24335   0.76284   0.83379   0.00000  Uiso   1.00
C175   C     0.22758   0.77428   0.81096   0.00000  Uiso   1.00
C176   C     0.21231   0.78711   0.83381   0.00000  Uiso   1.00
C177   C     0.21709   0.79170   0.16575   0.00000  Uiso   1.00
C178   C     0.23017   0.77664   0.18847   0.00000  Uiso   1.00
C179   C     0.24169   0.76094   0.16558   0.00000  Uiso   1.00
C180   C     0.24074   0.75970   0.11892   0.00000  Uiso   1.00
H53    H     0.23565   0.76112   0.03239   0.00000  Uiso   1.00
H54    H     0.19419   0.81748   0.11488   0.00000  Uiso   1.00
H55    H     0.17287   0.83584   0.91765   0.00000  Uiso   1.00
H56    H     0.16824   0.83116   0.08229   0.00000  Uiso   1.00
H57    H     0.18624   0.80966   0.88499   0.00000  Uiso   1.00
H58    H     0.24295   0.76850   0.96699   0.00000  Uiso   1.00
H59    H     0.25701   0.75435   0.89772   0.00000  Uiso   1.00
O35    O     0.25771   0.75076   0.80798   0.00000  Uiso   1.00
O36    O     0.22795   0.77238   0.76486   0.00000  Uiso   1.00
H60    H     0.20010   0.79611   0.81505   0.00000  Uiso   1.00
H61    H     0.20803   0.80385   0.18458   0.00000  Uiso   1.00
O37    O     0.23230   0.77645   0.23454   0.00000  Uiso   1.00
O38    O     0.25405   0.74680   0.19131   0.00000  Uiso   1.00
H62    H     0.25010   0.74725   0.10156   0.00000  Uiso   1.00
C181   C     0.14209   0.85976   0.04702   0.00000  Uiso   1.00
C182   C     0.12871   0.87438   0.02381   0.00000  Uiso   1.00
C183   C     0.12983   0.87554   0.97669   0.00000  Uiso   1.00
C184   C     0.14437   0.86212   0.95327   0.00000  Uiso   1.00
H63    H     0.14109   0.85909   0.08325   0.00000  Uiso   1.00
O39    O     0.11420   0.88794   0.04689   0.00000  Uiso   1.00
O40    O     0.11629   0.89012   0.95382   0.00000  Uiso   1.00
H64    H     0.14500   0.86317   0.91705   0.00000  Uiso   1.00
C185   C     0.68574   0.69032   0.52382   0.00000  Uiso   1.00
C186   C     0.68535   0.69062   0.47608   0.00000  Uiso   1.00
C187   C     0.70013   0.70440   0.45212   0.00000  Uiso   1.00
C188   C     0.71396   0.71915   0.47597   0.00000  Uiso   1.00
C189   C     0.71449   0.71866   0.52371   0.00000  Uiso   1.00
C190   C     0.69953   0.70513   0.54761   0.00000  Uiso   1.00
C191   C     0.72654   0.73448   0.45116   0.00000  Uiso   1.00
C192   C     0.72734   0.73395   0.40443   0.00000  Uiso   1.00
C193   C     0.71529   0.71799   0.38100   0.00000  Uiso   1.00
C194   C     0.70194   0.70350   0.40469   0.00000  Uiso   1.00
C195   C     0.67266   0.67464   0.54655   0.00000  Uiso   1.00
C196   C     0.65805   0.66110   0.52364   0.00000  Uiso   1.00
C197   C     0.65628   0.66273   0.47682   0.00000  Uiso   1.00
C198   C     0.66970   0.67737   0.45362   0.00000  Uiso   1.00
C199   C     0.69847   0.70718   0.59497   0.00000  Uiso   1.00
C200   C     0.71323   0.72024   0.61864   0.00000  Uiso   1.00
C201   C     0.72951   0.73187   0.59522   0.00000  Uiso   1.00
C202   C     0.73005   0.73099   0.54849   0.00000  Uiso   1.00
C203   C     0.74487   0.74450   0.61911   0.00000  Uiso   1.00
C204   C     0.74358   0.74547   0.66576   0.00000  Uiso   1.00
C205   C     0.72758   0.73431   0.68854   0.00000  Uiso   1.00
C206   C     0.71223   0.72160   0.66571   0.00000  Uiso   1.00
C207   C     0.71661   0.71697   0.33392   0.00000  Uiso   1.00
C208   C     0.72976   0.73196   0.31110   0.00000  Uiso   1.00
C209   C     0.74130   0.74767   0.33391   0.00000  Uiso   1.00
C210   C     0.74033   0.74900   0.38055   0.00000  Uiso   1.00
H65    H     0.73552   0.74747   0.46723   0.00000  Uiso   1.00
H66    H     0.69357   0.69131   0.38505   0.00000  Uiso   1.00
H67    H     0.67390   0.67209   0.58217   0.00000  Uiso   1.00
H68    H     0.66713   0.67838   0.41799   0.00000  Uiso   1.00
H69    H     0.68595   0.69922   0.61449   0.00000  Uiso   1.00
H70    H     0.74325   0.73967   0.53241   0.00000  Uiso   1.00
H71    H     0.75758   0.75354   0.60184   0.00000  Uiso   1.00
O41    O     0.75797   0.75750   0.69158   0.00000  Uiso   1.00
O42    O     0.72779   0.73639   0.73462   0.00000  Uiso   1.00
H72    H     0.69983   0.71283   0.68444   0.00000  Uiso   1.00
H73    H     0.70753   0.70480   0.31518   0.00000  Uiso   1.00
O43    O     0.73198   0.73202   0.26504   0.00000  Uiso   1.00
O44    O     0.75378   0.76169   0.30812   0.00000  Uiso   1.00
H74    H     0.74970   0.76146   0.39783   0.00000  Uiso   1.00
C211   C     0.64129   0.64943   0.45365   0.00000  Uiso   1.00
C212   C     0.62829   0.63452   0.47704   0.00000  Uiso   1.00
C213   C     0.63008   0.63287   0.52401   0.00000  Uiso   1.00
C214   C     0.64494   0.64606   0.54710   0.00000  Uiso   1.00
H75    H     0.63974   0.65050   0.41755   0.00000  Uiso   1.00
O45    O     0.61352   0.62112   0.45427   0.00000  Uiso   1.00
O46    O     0.61688   0.61805   0.54708   0.00000  Uiso   1.00
H76    H     0.64611   0.64462   0.58321   0.00000  Uiso   1.00
C215   C     0.28648   0.71895   0.47579   0.00000  Uiso   1.00
C216   C     0.30009   0.70399   0.45195   0.00000  Uiso   1.00
C217   C     0.31486   0.69019   0.47588   0.00000  Uiso   1.00
C218   C     0.31468   0.69009   0.52366   0.00000  Uiso   1.00
C219   C     0.30097   0.70499   0.54748   0.00000  Uiso   1.00
C220   C     0.28609   0.71862   0.52356   0.00000  Uiso   1.00
C221   C     0.32794   0.67456   0.54637   0.00000  Uiso   1.00
C222   C     0.34241   0.66090   0.52339   0.00000  Uiso   1.00
C223   C     0.34388   0.66226   0.47650   0.00000  Uiso   1.00
C224   C     0.33033   0.67676   0.45332   0.00000  Uiso   1.00
C225   C     0.27396   0.73430   0.45094   0.00000  Uiso   1.00
C226   C     0.27309   0.73371   0.40423   0.00000  Uiso   1.00
C227   C     0.28498   0.71763   0.38081   0.00000  Uiso   1.00
C228   C     0.29816   0.70299   0.40452   0.00000  Uiso   1.00
C229   C     0.27076   0.73123   0.54835   0.00000  Uiso   1.00
C230   C     0.27134   0.73218   0.59506   0.00000  Uiso   1.00
C231   C     0.28740   0.72031   0.61851   0.00000  Uiso   1.00
C232   C     0.30199   0.70704   0.59487   0.00000  Uiso   1.00
C233   C     0.28838   0.72166   0.66559   0.00000  Uiso   1.00
C234   C     0.27318   0.73459   0.68839   0.00000  Uiso   1.00
C235   C     0.25740   0.74600   0.66554   0.00000  Uiso   1.00
C236   C     0.25617   0.74507   0.61889   0.00000  Uiso   1.00
C237   C     0.35877   0.64886   0.45325   0.00000  Uiso   1.00
C238   C     0.37196   0.63412   0.47665   0.00000  Uiso   1.00
C239   C     0.37041   0.63271   0.52369   0.00000  Uiso   1.00
C240   C     0.35568   0.64601   0.54685   0.00000  Uiso   1.00
H77    H     0.32703   0.67224   0.58209   0.00000  Uiso   1.00
H78    H     0.33269   0.67754   0.41761   0.00000  Uiso   1.00
H79    H     0.26512   0.74741   0.46692   0.00000  Uiso   1.00
H80    H     0.30632   0.69066   0.38490   0.00000  Uiso   1.00
H81    H     0.25768   0.74008   0.53233   0.00000  Uiso   1.00
H82    H     0.31430   0.69887   0.61452   0.00000  Uiso   1.00
H83    H     0.30060   0.71269   0.68438   0.00000  Uiso   1.00
O47    O     0.27289   0.73662   0.73447   0.00000  Uiso   1.00
O48    O     0.24313   0.75821   0.69132   0.00000  Uiso   1.00
H84    H     0.24363   0.75431   0.60159   0.00000  Uiso   1.00
H85    H     0.36011   0.64973   0.41709   0.00000  Uiso   1.00
O49    O     0.38667   0.62068   0.45384   0.00000  Uiso   1.00
O50    O     0.38373   0.61801   0.54676   0.00000  Uiso   1.00
H86    H     0.35473   0.64477   0.58302   0.00000  Uiso   1.00
C241   C     0.28371   0.71667   0.33370   0.00000  Uiso   1.00
C242   C     0.27078   0.73183   0.31088   0.00000  Uiso   1.00
C243   C     0.25931   0.74760   0.33371   0.00000  Uiso   1.00
C244   C     0.26024   0.74887   0.38036   0.00000  Uiso   1.00
H87    H     0.29271   0.70445   0.31494   0.00000  Uiso   1.00
O51    O     0.26873   0.73206   0.26479   0.00000  Uiso   1.00
O52    O     0.24702   0.76177   0.30795   0.00000  Uiso   1.00
H88    H     0.25097   0.76141   0.39764   0.00000  Uiso   1.00
C245   C     0.28561   0.29041   0.52368   0.00000  Uiso   1.00
C246   C     0.30052   0.30402   0.54760   0.00000  Uiso   1.00
C247   C     0.31427   0.31888   0.52380   0.00000  Uiso   1.00
C248   C     0.31447   0.31874   0.47603   0.00000  Uiso   1.00
C249   C     0.29967   0.30495   0.45209   0.00000  Uiso   1.00
C250   C     0.28600   0.29006   0.47592   0.00000  Uiso   1.00
C251   C     0.32998   0.33212   0.45350   0.00000  Uiso   1.00
C252   C     0.34358   0.34659   0.47670   0.00000  Uiso   1.00
C253   C     0.34209   0.34799   0.52358   0.00000  Uiso   1.00
C254   C     0.32754   0.33441   0.54654   0.00000  Uiso   1.00
C255   C     0.27024   0.27784   0.54847   0.00000  Uiso   1.00
C256   C     0.27083   0.27692   0.59517   0.00000  Uiso   1.00
C257   C     0.28693   0.28878   0.61862   0.00000  Uiso   1.00
C258   C     0.30156   0.30199   0.59498   0.00000  Uiso   1.00
C259   C     0.27343   0.27472   0.45106   0.00000  Uiso   1.00
C260   C     0.27259   0.27528   0.40435   0.00000  Uiso   1.00
C261   C     0.28455   0.29130   0.38096   0.00000  Uiso   1.00
C262   C     0.29778   0.30590   0.40467   0.00000  Uiso   1.00
C263   C     0.28330   0.29225   0.33386   0.00000  Uiso   1.00
C264   C     0.27036   0.27709   0.31100   0.00000  Uiso   1.00
C265   C     0.25886   0.26135   0.33381   0.00000  Uiso   1.00
C266   C     0.25972   0.26013   0.38045   0.00000  Uiso   1.00
C267   C     0.35543   0.36283   0.54708   0.00000  Uiso   1.00
C268   C     0.37025   0.37603   0.52395   0.00000  Uiso   1.00
C269   C     0.37179   0.37460   0.47691   0.00000  Uiso   1.00
C270   C     0.35853   0.35992   0.45348   0.00000  Uiso   1.00
H89    H     0.33234   0.33133   0.41778   0.00000  Uiso   1.00
H90    H     0.32659   0.33678   0.58224   0.00000  Uiso   1.00
H91    H     0.25715   0.26899   0.53246   0.00000  Uiso   1.00
H92    H     0.31393   0.31010   0.61461   0.00000  Uiso   1.00
H93    H     0.26451   0.26167   0.46702   0.00000  Uiso   1.00
H94    H     0.30603   0.31816   0.38504   0.00000  Uiso   1.00
H95    H     0.29234   0.30444   0.31512   0.00000  Uiso   1.00
O53    O     0.26837   0.27682   0.26492   0.00000  Uiso   1.00
O54    O     0.24663   0.24714   0.30801   0.00000  Uiso   1.00
H96    H     0.25041   0.24762   0.39770   0.00000  Uiso   1.00
H97    H     0.35446   0.36410   0.58324   0.00000  Uiso   1.00
O55    O     0.38367   0.39064   0.54707   0.00000  Uiso   1.00
O56    O     0.38658   0.38796   0.45413   0.00000  Uiso   1.00
H98    H     0.35987   0.35903   0.41731   0.00000  Uiso   1.00
C271   C     0.28792   0.28746   0.66569   0.00000  Uiso   1.00
C272   C     0.27275   0.27451   0.68847   0.00000  Uiso   1.00
C273   C     0.25696   0.26308   0.66564   0.00000  Uiso   1.00
C274   C     0.25567   0.26404   0.61901   0.00000  Uiso   1.00
H99    H     0.30015   0.29643   0.68447   0.00000  Uiso   1.00
O57    O     0.27255   0.27244   0.73453   0.00000  Uiso   1.00
O58    O     0.24279   0.25078   0.69142   0.00000  Uiso   1.00
H100   H     0.24311   0.25481   0.60172   0.00000  Uiso   1.00
C275   C     0.68616   0.31883   0.47633   0.00000  Uiso   1.00
C276   C     0.68636   0.31896   0.52410   0.00000  Uiso   1.00
C277   C     0.70014   0.30413   0.54788   0.00000  Uiso   1.00
C278   C     0.71507   0.29055   0.52392   0.00000  Uiso   1.00
C279   C     0.71469   0.29021   0.47615   0.00000  Uiso   1.00
C280   C     0.70098   0.30507   0.45234   0.00000  Uiso   1.00
C281   C     0.73042   0.27796   0.54869   0.00000  Uiso   1.00
C282   C     0.72980   0.27699   0.59539   0.00000  Uiso   1.00
C283   C     0.71372   0.28885   0.61887   0.00000  Uiso   1.00
C284   C     0.69913   0.30210   0.59527   0.00000  Uiso   1.00
C285   C     0.67063   0.33219   0.45383   0.00000  Uiso   1.00
C286   C     0.65702   0.34664   0.47706   0.00000  Uiso   1.00
C287   C     0.65848   0.34801   0.52395   0.00000  Uiso   1.00
C288   C     0.67304   0.33444   0.54687   0.00000  Uiso   1.00
C289   C     0.70286   0.30601   0.40490   0.00000  Uiso   1.00
C290   C     0.71609   0.29142   0.38114   0.00000  Uiso   1.00
C291   C     0.72811   0.27544   0.40454   0.00000  Uiso   1.00
C292   C     0.72729   0.27491   0.45126   0.00000  Uiso   1.00
C293   C     0.74098   0.26030   0.38064   0.00000  Uiso   1.00
C294   C     0.74176   0.26143   0.33397   0.00000  Uiso   1.00
C295   C     0.73018   0.27709   0.31115   0.00000  Uiso   1.00
C296   C     0.71727   0.29228   0.33402   0.00000  Uiso   1.00
C297   C     0.71270   0.28748   0.66594   0.00000  Uiso   1.00
C298   C     0.72781   0.27447   0.68869   0.00000  Uiso   1.00
C299   C     0.74359   0.26303   0.66583   0.00000  Uiso   1.00
C300   C     0.74491   0.26405   0.61920   0.00000  Uiso   1.00
H101   H     0.74352   0.26912   0.53267   0.00000  Uiso   1.00
H102   H     0.68678   0.31023   0.61494   0.00000  Uiso   1.00
H103   H     0.66827   0.33140   0.41812   0.00000  Uiso   1.00
H104   H     0.67396   0.33680   0.58258   0.00000  Uiso   1.00
H105   H     0.69457   0.31824   0.38528   0.00000  Uiso   1.00
H106   H     0.73623   0.26188   0.46719   0.00000  Uiso   1.00
H107   H     0.75034   0.24784   0.39790   0.00000  Uiso   1.00
O59    O     0.75394   0.24716   0.30817   0.00000  Uiso   1.00
O60    O     0.73205   0.27669   0.26502   0.00000  Uiso   1.00
H108   H     0.70817   0.30442   0.31527   0.00000  Uiso   1.00
H109   H     0.70047   0.29646   0.68474   0.00000  Uiso   1.00
O61    O     0.72796   0.27233   0.73475   0.00000  Uiso   1.00
O62    O     0.75773   0.25069   0.69157   0.00000  Uiso   1.00
H110   H     0.75745   0.25479   0.60188   0.00000  Uiso   1.00
C301   C     0.64512   0.36283   0.54748   0.00000  Uiso   1.00
C302   C     0.63033   0.37606   0.52436   0.00000  Uiso   1.00
C303   C     0.62883   0.37466   0.47731   0.00000  Uiso   1.00
C304   C     0.64208   0.35999   0.45386   0.00000  Uiso   1.00
H111   H     0.64606   0.36407   0.58365   0.00000  Uiso   1.00
O63    O     0.61692   0.39069   0.54749   0.00000  Uiso   1.00
O64    O     0.61408   0.38806   0.45455   0.00000  Uiso   1.00
H112   H     0.64078   0.35913   0.41769   0.00000  Uiso   1.00
Cu1    Cu    0.25031   0.25449   0.24971   0.00000  Uiso   1.00
Cu2    Cu    0.75006   0.25432   0.24982   0.00000  Uiso   1.00
Cu3    Cu    0.75044   0.75402   0.24987   0.00000  Uiso   1.00
Cu4    Cu    0.25053   0.75427   0.24964   0.00000  Uiso   1.00
Cu5    Cu    0.25042   0.75449   0.74965   0.00000  Uiso   1.00
Cu6    Cu    0.25030   0.25431   0.74969   0.00000  Uiso   1.00
Cu7    Cu    0.75018   0.25415   0.74987   0.00000  Uiso   1.00
Cu8    Cu    0.75038   0.75411   0.74986   0.00000  Uiso   1.00
Zn1    Zn    0.10244   0.10601  -0.00045   0.00000  Uiso   1.00
Zn2    Zn    0.89842   0.10619  -0.00040   0.00000  Uiso   1.00
Zn3    Zn    0.89834   0.90239  -0.00058   0.00000  Uiso   1.00
Zn4    Zn    0.10206   0.90226   0.00046   0.00000  Uiso   1.00
Zn5    Zn    0.60203   0.60634   0.50083   0.00000  Uiso   1.00
Zn6    Zn    0.39840   0.60613   0.50045   0.00000  Uiso   1.00
Zn7    Zn    0.39836   0.40247   0.50076   0.00000  Uiso   1.00
Zn8    Zn    0.60227   0.40256   0.50120   0.00000  Uiso   1.00
loop_
_geom_bond_atom_site_label_1
_geom_bond_atom_site_label_2
_geom_bond_distance
_geom_bond_site_symmetry_2
_ccdc_geom_bond_type
C1     C2      1.407   .     A
C1     C6      1.396   .     A
C1     H1      1.083   .     S
C2     C3      1.427   .     A
C2     O1      1.395   .     S
C3     C4      1.406   .     A
C3     O2      1.395   .     S
C4     C5      1.396   .     A
C4     H2      1.083   .     S
C5     C6      1.361   .     A
C5     C8      1.376   .     A
C6     C7      1.377   .     A
C7     N1      1.359   .     A
C7     N8      1.338   1_565 A
N1     C8      1.359   .     A
N1     Ni1     1.895   1_665 S
C8     N2      1.338   1_655 A
N2     C8      1.338   1_455 A
N2     C9      1.338   .     A
C9     N3      1.359   .     A
C9     C12     1.376   1_554 A
N3     C10     1.360   .     A
N3     Ni1     1.894   1_565 S
C10    C11     1.377   .     A
C10    N5      1.338   1_565 A
C11    C12     1.361   1_554 A
C11    C20     1.396   .     A
C12    C9      1.376   1_556 A
C12    C11     1.361   1_556 A
C12    C17     1.396   .     A
N4     C13     1.360   .     A
N4     C16     1.359   .     A
N4     Ni1     1.895   .     S
C13    N5      1.338   .     A
C13    C14     1.377   .     A
N5     C10     1.338   1_545 A
C14    C15     1.361   .     A
C14    C24     1.396   .     A
C15    C16     1.377   .     A
C15    C21     1.396   .     A
C16    N7      1.339   1_554 A
C17    C18     1.406   .     A
C17    H3      1.083   .     S
C18    C19     1.427   .     A
C18    O3      1.395   .     S
C19    C20     1.406   1_556 A
C19    O4      1.395   .     S
C20    C19     1.406   1_554 A
C20    H4      1.083   .     S
C21    C22     1.407   .     A
C21    H5      1.083   1_554 S
C22    C23     1.427   .     A
C22    O5      1.395   .     S
C23    C24     1.406   .     A
C23    O6      1.395   .     S
C24    H6      1.083   .     S
N6     C25     1.360   .     A
N6     C28     1.359   .     A
N6     Ni1     1.895   1_655 S
C25    N7      1.338   1_654 A
C25    C26     1.377   .     A
N7     C16     1.339   1_556 A
N7     C25     1.338   1_456 A
C26    C27     1.361   .     A
C26    C32     1.396   1_554 A
C27    C28     1.377   .     A
C27    C29     1.396   .     A
C28    N8      1.339   .     A
C29    C30     1.406   .     A
C29    H7      1.083   .     S
C30    C31     1.427   1_554 A
C30    O7      1.395   1_554 S
C31    C30     1.427   1_556 A
C31    C32     1.407   .     A
C31    O8      1.395   .     S
C32    C26     1.396   1_556 A
C32    H8      1.083   .     S
N8     C7      1.338   1_545 A
O1     Zn3     1.803   .     S
O2     Zn3     1.802   .     S
O3     Zn4     1.802   1_556 S
O4     Zn4     1.802   1_556 S
H5     C21     1.083   1_556 S
O5     Zn1     1.803   .     S
O6     Zn1     1.803   .     S
O7     C30     1.395   1_556 S
O7     Zn2     1.802   1_556 S
O8     Zn2     1.803   1_556 S
Ni1    N6      1.895   1_455 S
Ni1    N3      1.894   1_545 S
Ni1    N1      1.895   1_445 S
C33    C34     1.406   .     A
C33    C38     1.396   .     A
C33    H9      1.083   .     S
C34    C35     1.427   .     A
C34    O9      1.395   .     S
C35    C36     1.406   .     A
C35    O10     1.394   .     S
C36    C37     1.396   .     A
C36    H10     1.083   .     S
C37    C38     1.361   .     A
C37    C40     1.376   .     A
C38    C39     1.376   .     A
C39    N9      1.359   .     A
C39    N16     1.338   .     A
N9     C40     1.359   .     A
N9     Ni2     1.894   .     S
C40    N10     1.338   .     A
N10    C41     1.338   .     A
C41    N11     1.359   .     A
C41    C44     1.376   .     A
N11    C42     1.360   .     A
N11    Ni2     1.894   .     S
C42    C43     1.377   .     A
C42    N13     1.338   .     A
C43    C44     1.361   .     A
C43    C52     1.396   .     A
C44    C49     1.395   .     A
N12    C45     1.360   .     A
N12    C48     1.359   .     A
N12    Ni2     1.894   .     S
C45    N13     1.339   .     A
C45    C46     1.376   .     A
C46    C47     1.361   .     A
C46    C56     1.396   .     A
C47    C48     1.377   .     A
C47    C53     1.396   .     A
C48    N15     1.339   .     A
C49    C50     1.406   .     A
C49    H11     1.083   .     S
C50    C51     1.427   .     A
C50    O11     1.395   .     S
C51    C52     1.406   .     A
C51    O12     1.395   .     S
C52    H12     1.083   .     S
C53    C54     1.406   .     A
C53    H13     1.083   .     S
C54    C55     1.427   .     A
C54    O13     1.395   .     S
C55    C56     1.406   .     A
C55    O14     1.395   .     S
C56    H14     1.083   .     S
N14    C57     1.359   .     A
N14    C60     1.359   .     A
N14    Ni2     1.894   .     S
C57    N15     1.338   .     A
C57    C58     1.377   .     A
C58    C59     1.361   .     A
C58    C64     1.396   .     A
C59    C60     1.376   .     A
C59    C61     1.396   .     A
C60    N16     1.338   .     A
C61    C62     1.406   .     A
C61    H15     1.083   .     S
C62    C63     1.427   .     A
C62    O15     1.394   .     S
C63    C64     1.406   .     A
C63    O16     1.395   .     S
C64    H16     1.083   .     S
O9     Zn6     1.802   .     S
O10    Zn6     1.802   .     S
O11    Zn5     1.802   .     S
O12    Zn5     1.802   .     S
O13    Zn8     1.802   .     S
O14    Zn8     1.802   .     S
O15    Zn7     1.802   .     S
O16    Zn7     1.802   .     S
C65    C66     1.426   1_554 A
C65    C70     1.428   .     A
C65    C75     1.422   .     A
C66    C65     1.426   1_556 A
C66    C67     1.428   .     A
C66    C78     1.422   .     A
C67    C68     1.426   .     A
C67    C74     1.422   .     A
C68    C69     1.426   1_556 A
C68    C71     1.421   .     A
C69    C68     1.426   1_554 A
C69    C70     1.426   .     A
C69    C82     1.421   .     A
C70    C79     1.422   .     A
C71    C72     1.396   .     A
C71    H17     1.077   .     S
C72    C73     1.408   .     A
C72    C90     1.409   .     A
C73    C74     1.396   .     A
C73    C87     1.409   .     A
C74    H18     1.076   .     S
C75    C76     1.397   .     A
C75    H19     1.076   .     S
C76    C77     1.405   1_554 A
C76    C94     1.407   .     A
C77    C76     1.405   1_556 A
C77    C78     1.396   .     A
C77    C91     1.407   .     A
C78    H20     1.076   .     S
C79    C80     1.396   .     A
C79    H21     1.077   .     S
C80    C81     1.408   .     A
C80    C86     1.409   .     A
C81    C82     1.396   .     A
C81    C83     1.409   .     A
C82    H22     1.077   .     S
C83    C84     1.396   .     A
C83    H23     1.084   .     S
C84    C85     1.372   .     A
C84    O17     1.381   .     S
C85    C86     1.396   .     A
C85    O18     1.381   .     S
C86    H24     1.084   .     S
C87    C88     1.396   .     A
C87    H25     1.084   .     S
C88    C89     1.372   .     A
C88    O19     1.381   .     S
C89    C90     1.396   .     A
C89    O20     1.381   .     S
C90    H26     1.084   .     S
O17    Cu1     1.812   .     S
O18    Cu1     1.812   .     S
O19    Cu6     1.812   .     S
O20    Cu6     1.812   .     S
C91    C92     1.396   .     A
C91    H27     1.084   .     S
C92    C93     1.410   1_556 A
C92    O21     1.395   .     S
C93    C92     1.410   1_554 A
C93    C94     1.397   .     A
C93    O22     1.395   .     S
C94    H28     1.084   .     S
O21    Zn1     1.801   1_556 S
O22    Zn1     1.801   .     S
C95    C96     1.426   .     A
C95    C100    1.426   1_554 A
C95    C105    1.421   .     A
C96    C97     1.428   .     A
C96    C108    1.422   .     A
C97    C98     1.427   1_554 A
C97    C104    1.422   .     A
C98    C97     1.427   1_556 A
C98    C99     1.428   .     A
C98    C101    1.422   .     A
C99    C100    1.426   .     A
C99    C112    1.422   .     A
C100   C95     1.426   1_556 A
C100   C109    1.421   .     A
C101   C102    1.396   .     A
C101   H29     1.076   .     S
C102   C103    1.404   1_556 A
C102   C120    1.407   .     A
C103   C102    1.404   1_554 A
C103   C104    1.397   .     A
C103   C117    1.407   .     A
C104   H30     1.076   .     S
C105   C106    1.396   .     A
C105   H31     1.077   .     S
C106   C107    1.408   .     A
C106   C124    1.409   .     A
C107   C108    1.397   .     A
C107   C121    1.409   .     A
C108   H32     1.076   .     S
C109   C110    1.396   .     A
C109   H33     1.077   .     S
C110   C111    1.408   .     A
C110   C116    1.409   .     A
C111   C112    1.396   .     A
C111   C113    1.409   .     A
C112   H34     1.076   .     S
C113   C114    1.396   .     A
C113   H35     1.084   .     S
C114   C115    1.372   .     A
C114   O23     1.381   .     S
C115   C116    1.396   .     A
C115   O24     1.381   .     S
C116   H36     1.084   .     S
C117   C118    1.396   .     A
C117   H37     1.084   .     S
C118   C119    1.410   1_554 A
C118   O25     1.395   .     S
C119   C118    1.410   1_556 A
C119   C120    1.396   .     A
C119   O26     1.395   .     S
C120   H38     1.084   .     S
O23    Cu7     1.812   .     S
O24    Cu7     1.812   .     S
O25    Zn2     1.801   .     S
O26    Zn2     1.801   1_556 S
C121   C122    1.396   .     A
C121   H39     1.084   .     S
C122   C123    1.372   .     A
C122   O27     1.381   .     S
C123   C124    1.396   .     A
C123   O28     1.381   .     S
C124   H40     1.083   .     S
O27    Cu2     1.813   .     S
O28    Cu2     1.813   .     S
C125   C126    1.426   .     A
C125   C130    1.426   1_554 A
C125   C135    1.421   .     A
C126   C127    1.428   .     A
C126   C138    1.422   .     A
C127   C128    1.426   1_554 A
C127   C134    1.422   .     A
C128   C127    1.426   1_556 A
C128   C129    1.427   .     A
C128   C131    1.421   .     A
C129   C130    1.425   .     A
C129   C142    1.421   .     A
C130   C125    1.426   1_556 A
C130   C139    1.421   .     A
C131   C132    1.396   .     A
C131   H41     1.077   .     S
C132   C133    1.405   1_556 A
C132   C150    1.407   .     A
C133   C132    1.405   1_554 A
C133   C134    1.397   .     A
C133   C147    1.407   .     A
C134   H42     1.076   .     S
C135   C136    1.396   .     A
C135   H43     1.078   .     S
C136   C137    1.408   .     A
C136   C154    1.409   .     A
C137   C138    1.397   .     A
C137   C151    1.409   .     A
C138   H44     1.077   .     S
C139   C140    1.396   .     A
C139   H45     1.078   .     S
C140   C141    1.408   .     A
C140   C146    1.409   .     A
C141   C142    1.396   .     A
C141   C143    1.409   .     A
C142   H46     1.077   .     S
C143   C144    1.396   .     A
C143   H47     1.084   .     S
C144   C145    1.372   .     A
C144   O29     1.381   .     S
C145   C146    1.396   .     A
C145   O30     1.381   .     S
C146   H48     1.084   .     S
C147   C148    1.396   .     A
C147   H49     1.084   .     S
C148   C149    1.410   1_554 A
C148   O31     1.395   .     S
C149   C148    1.410   1_556 A
C149   C150    1.396   .     A
C149   O32     1.395   .     S
C150   H50     1.084   .     S
O29    Cu8     1.812   .     S
O30    Cu8     1.812   .     S
O31    Zn3     1.801   .     S
O32    Zn3     1.801   1_556 S
C151   C152    1.396   .     A
C151   H51     1.084   .     S
C152   C153    1.372   .     A
C152   O33     1.381   .     S
C153   C154    1.396   .     A
C153   O34     1.381   .     S
C154   H52     1.084   .     S
O33    Cu3     1.812   .     S
O34    Cu3     1.813   .     S
C155   C156    1.427   1_556 A
C155   C160    1.428   .     A
C155   C165    1.422   .     A
C156   C155    1.427   1_554 A
C156   C157    1.428   .     A
C156   C168    1.421   .     A
C157   C158    1.426   .     A
C157   C164    1.422   .     A
C158   C159    1.426   1_554 A
C158   C161    1.421   .     A
C159   C158    1.426   1_556 A
C159   C160    1.426   .     A
C159   C172    1.421   .     A
C160   C169    1.422   .     A
C161   C162    1.396   .     A
C161   H53     1.077   .     S
C162   C163    1.408   .     A
C162   C180    1.409   .     A
C163   C164    1.396   .     A
C163   C177    1.409   .     A
C164   H54     1.076   .     S
C165   C166    1.397   .     A
C165   H55     1.077   .     S
C166   C167    1.405   1_556 A
C166   C184    1.407   .     A
C167   C166    1.405   1_554 A
C167   C168    1.396   .     A
C167   C181    1.407   .     A
C168   H56     1.076   .     S
C169   C170    1.397   .     A
C169   H57     1.077   .     S
C170   C171    1.408   .     A
C170   C176    1.409   .     A
C171   C172    1.396   .     A
C171   C173    1.409   .     A
C172   H58     1.077   .     S
C173   C174    1.395   .     A
C173   H59     1.084   .     S
C174   C175    1.372   .     A
C174   O35     1.381   .     S
C175   C176    1.396   .     A
C175   O36     1.381   .     S
C176   H60     1.084   .     S
C177   C178    1.396   .     A
C177   H61     1.084   .     S
C178   C179    1.372   .     A
C178   O37     1.381   .     S
C179   C180    1.396   .     A
C179   O38     1.381   .     S
C180   H62     1.083   .     S
O35    Cu5     1.812   .     S
O36    Cu5     1.813   .     S
O37    Cu4     1.813   .     S
O38    Cu4     1.813   .     S
C181   C182    1.396   .     A
C181   H63     1.084   .     S
C182   C183    1.410   1_554 A
C182   O39     1.395   .     S
C183   C182    1.410   1_556 A
C183   C184    1.396   .     A
C183   O40     1.395   .     S
C184   H64     1.084   .     S
O39    Zn4     1.800   .     S
O40    Zn4     1.801   1_556 S
C185   C186    1.425   .     A
C185   C190    1.426   .     A
C185   C195    1.420   .     A
C186   C187    1.427   .     A
C186   C198    1.421   .     A
C187   C188    1.426   .     A
C187   C194    1.421   .     A
C188   C189    1.426   .     A
C188   C191    1.421   .     A
C189   C190    1.425   .     A
C189   C202    1.421   .     A
C190   C199    1.421   .     A
C191   C192    1.396   .     A
C191   H65     1.078   .     S
C192   C193    1.408   .     A
C192   C210    1.409   .     A
C193   C194    1.397   .     A
C193   C207    1.409   .     A
C194   H66     1.077   .     S
C195   C196    1.396   .     A
C195   H67     1.078   .     S
C196   C197    1.405   .     A
C196   C214    1.406   .     A
C197   C198    1.397   .     A
C197   C211    1.407   .     A
C198   H68     1.077   .     S
C199   C200    1.396   .     A
C199   H69     1.078   .     S
C200   C201    1.408   .     A
C200   C206    1.409   .     A
C201   C202    1.396   .     A
C201   C203    1.409   .     A
C202   H70     1.078   .     S
C203   C204    1.396   .     A
C203   H71     1.083   .     S
C204   C205    1.372   .     A
C204   O41     1.381   .     S
C205   C206    1.396   .     A
C205   O42     1.381   .     S
C206   H72     1.084   .     S
C207   C208    1.396   .     A
C207   H73     1.084   .     S
C208   C209    1.372   .     A
C208   O43     1.381   .     S
C209   C210    1.396   .     A
C209   O44     1.381   .     S
C210   H74     1.084   .     S
O41    Cu8     1.812   .     S
O42    Cu8     1.812   .     S
O43    Cu3     1.813   .     S
O44    Cu3     1.812   .     S
C211   C212    1.396   .     A
C211   H75     1.084   .     S
C212   C213    1.410   .     A
C212   O45     1.395   .     S
C213   C214    1.396   .     A
C213   O46     1.395   .     S
C214   H76     1.084   .     S
O45    Zn5     1.801   .     S
O46    Zn5     1.800   .     S
C215   C216    1.426   .     A
C215   C220    1.426   .     A
C215   C225    1.421   .     A
C216   C217    1.428   .     A
C216   C228    1.422   .     A
C217   C218    1.426   .     A
C217   C224    1.421   .     A
C218   C219    1.427   .     A
C218   C221    1.421   .     A
C219   C220    1.425   .     A
C219   C232    1.422   .     A
C220   C229    1.421   .     A
C221   C222    1.396   .     A
C221   H77     1.077   .     S
C222   C223    1.405   .     A
C222   C240    1.407   .     A
C223   C224    1.397   .     A
C223   C237    1.407   .     A
C224   H78     1.077   .     S
C225   C226    1.396   .     A
C225   H79     1.077   .     S
C226   C227    1.408   .     A
C226   C244    1.409   .     A
C227   C228    1.397   .     A
C227   C241    1.409   .     A
C228   H80     1.077   .     S
C229   C230    1.396   .     A
C229   H81     1.077   .     S
C230   C231    1.408   .     A
C230   C236    1.409   .     A
C231   C232    1.396   .     A
C231   C233    1.409   .     A
C232   H82     1.077   .     S
C233   C234    1.396   .     A
C233   H83     1.084   .     S
C234   C235    1.372   .     A
C234   O47     1.381   .     S
C235   C236    1.396   .     A
C235   O48     1.381   .     S
C236   H84     1.083   .     S
C237   C238    1.396   .     A
C237   H85     1.084   .     S
C238   C239    1.410   .     A
C238   O49     1.395   .     S
C239   C240    1.396   .     A
C239   O50     1.395   .     S
C240   H86     1.084   .     S
O47    Cu5     1.812   .     S
O48    Cu5     1.812   .     S
O49    Zn6     1.801   .     S
O50    Zn6     1.800   .     S
C241   C242    1.397   .     A
C241   H87     1.084   .     S
C242   C243    1.372   .     A
C242   O51     1.382   .     S
C243   C244    1.396   .     A
C243   O52     1.381   .     S
C244   H88     1.084   .     S
O51    Cu4     1.813   .     S
O52    Cu4     1.812   .     S
C245   C246    1.425   .     A
C245   C250    1.426   .     A
C245   C255    1.421   .     A
C246   C247    1.427   .     A
C246   C258    1.421   .     A
C247   C248    1.426   .     A
C247   C254    1.421   .     A
C248   C249    1.428   .     A
C248   C251    1.421   .     A
C249   C250    1.426   .     A
C249   C262    1.421   .     A
C250   C259    1.421   .     A
C251   C252    1.397   .     A
C251   H89     1.077   .     S
C252   C253    1.405   .     A
C252   C270    1.407   .     A
C253   C254    1.396   .     A
C253   C267    1.407   .     A
C254   H90     1.077   .     S
C255   C256    1.396   .     A
C255   H91     1.077   .     S
C256   C257    1.408   .     A
C256   C274    1.409   .     A
C257   C258    1.396   .     A
C257   C271    1.409   .     A
C258   H92     1.077   .     S
C259   C260    1.396   .     A
C259   H93     1.078   .     S
C260   C261    1.408   .     A
C260   C266    1.409   .     A
C261   C262    1.396   .     A
C261   C263    1.409   .     A
C262   H94     1.077   .     S
C263   C264    1.396   .     A
C263   H95     1.084   .     S
C264   C265    1.372   .     A
C264   O53     1.381   .     S
C265   C266    1.395   .     A
C265   O54     1.381   .     S
C266   H96     1.084   .     S
C267   C268    1.396   .     A
C267   H97     1.084   .     S
C268   C269    1.410   .     A
C268   O55     1.395   .     S
C269   C270    1.396   .     A
C269   O56     1.395   .     S
C270   H98     1.084   .     S
O53    Cu1     1.813   .     S
O54    Cu1     1.812   .     S
O55    Zn7     1.800   .     S
O56    Zn7     1.801   .     S
C271   C272    1.396   .     A
C271   H99     1.084   .     S
C272   C273    1.372   .     A
C272   O57     1.381   .     S
C273   C274    1.396   .     A
C273   O58     1.381   .     S
C274   H100    1.084   .     S
O57    Cu6     1.812   .     S
O58    Cu6     1.812   .     S
C275   C276    1.426   .     A
C275   C280    1.428   .     A
C275   C285    1.422   .     A
C276   C277    1.427   .     A
C276   C288    1.421   .     A
C277   C278    1.425   .     A
C277   C284    1.421   .     A
C278   C279    1.426   .     A
C278   C281    1.421   .     A
C279   C280    1.426   .     A
C279   C292    1.421   .     A
C280   C289    1.422   .     A
C281   C282    1.396   .     A
C281   H101    1.077   .     S
C282   C283    1.408   .     A
C282   C300    1.409   .     A
C283   C284    1.396   .     A
C283   C297    1.409   .     A
C284   H102    1.077   .     S
C285   C286    1.397   .     A
C285   H103    1.077   .     S
C286   C287    1.405   .     A
C286   C304    1.407   .     A
C287   C288    1.396   .     A
C287   C301    1.407   .     A
C288   H104    1.077   .     S
C289   C290    1.397   .     A
C289   H105    1.077   .     S
C290   C291    1.408   .     A
C290   C296    1.410   .     A
C291   C292    1.396   .     A
C291   C293    1.409   .     A
C292   H106    1.077   .     S
C293   C294    1.395   .     A
C293   H107    1.084   .     S
C294   C295    1.372   .     A
C294   O59     1.381   .     S
C295   C296    1.397   .     A
C295   O60     1.382   .     S
C296   H108    1.084   .     S
C297   C298    1.396   .     A
C297   H109    1.084   .     S
C298   C299    1.372   .     A
C298   O61     1.381   .     S
C299   C300    1.396   .     A
C299   O62     1.381   .     S
C300   H110    1.084   .     S
O59    Cu2     1.812   .     S
O60    Cu2     1.813   .     S
O61    Cu7     1.812   .     S
O62    Cu7     1.812   .     S
C301   C302    1.396   .     A
C301   H111    1.084   .     S
C302   C303    1.410   .     A
C302   O63     1.395   .     S
C303   C304    1.396   .     A
C303   O64     1.395   .     S
C304   H112    1.084   .     S
O63    Zn8     1.800   .     S
O64    Zn8     1.801   .     S
Zn1    O21     1.801   1_554 S
Zn2    O26     1.801   1_554 S
Zn2    O8      1.803   1_554 S
Zn2    O7      1.802   1_554 S
Zn3    O32     1.801   1_554 S
Zn4    O4      1.802   1_554 S
Zn4    O40     1.801   1_554 S
Zn4    O3      1.802   1_554 S
