data_hof-TN_O-PcMN_O-Zntet
_audit_creation_date              2021-11-06
_audit_creation_method            'Materials Studio'
_symmetry_space_group_name_H-M    'P1'
_symmetry_Int_Tables_number       1
_symmetry_cell_setting            triclinic
loop_
_symmetry_equiv_pos_as_xyz
  x,y,z
_cell_length_a                    68.4541
_cell_length_b                    67.2861
_cell_length_c                    29.9695
_cell_angle_alpha                 89.9794
_cell_angle_beta                  90.0582
_cell_angle_gamma                 90.0015
loop_
_atom_site_label
_atom_site_type_symbol
_atom_site_fract_x
_atom_site_fract_y
_atom_site_fract_z
_atom_site_U_iso_or_equiv
_atom_site_adp_type
_atom_site_occupancy
C1     C     0.06897   0.96154   0.00008   0.00000  Uiso   1.00
C2     C     0.07442   0.94132   0.00011   0.00000  Uiso   1.00
C3     C     0.05971   0.92619   0.00027   0.00000  Uiso   1.00
C4     C     0.03975   0.93152   0.00030   0.00000  Uiso   1.00
C5     C     0.03512   0.95171   0.00021   0.00000  Uiso   1.00
C6     C     0.04910   0.96604   0.00014   0.00000  Uiso   1.00
C7     C     0.03944   0.98396   0.00010   0.00000  Uiso   1.00
N1     N     0.01974   0.98155   0.00009   0.00000  Uiso   1.00
C8     C     0.01742   0.96148   0.00014   0.00000  Uiso   1.00
N2     N     0.00019   0.95207   0.00003   0.00000  Uiso   1.00
C9     C     0.98295   0.96147  -0.00008   0.00000  Uiso   1.00
N3     N     0.98063   0.98155  -0.00003   0.00000  Uiso   1.00
C10    C     0.96092   0.98395  -0.00004   0.00000  Uiso   1.00
C11    C     0.95127   0.96602  -0.00008   0.00000  Uiso   1.00
C12    C     0.96526   0.95170  -0.00015   0.00000  Uiso   1.00
N4     N     0.98063   0.02140  -0.00006   0.00000  Uiso   1.00
C13    C     0.96092   0.01900  -0.00004   0.00000  Uiso   1.00
N5     N     0.95170   0.00147  -0.00003   0.00000  Uiso   1.00
C14    C     0.95127   0.03693  -0.00006   0.00000  Uiso   1.00
C15    C     0.96526   0.05125  -0.00009   0.00000  Uiso   1.00
C16    C     0.98295   0.04148  -0.00008   0.00000  Uiso   1.00
C17    C     0.96063   0.93151  -0.00026   0.00000  Uiso   1.00
C18    C     0.94068   0.92617  -0.00027   0.00000  Uiso   1.00
C19    C     0.92596   0.94129  -0.00010   0.00000  Uiso   1.00
C20    C     0.93140   0.96151  -0.00004   0.00000  Uiso   1.00
C21    C     0.96063   0.07144  -0.00013   0.00000  Uiso   1.00
C22    C     0.94067   0.07677  -0.00014   0.00000  Uiso   1.00
C23    C     0.92596   0.06165  -0.00009   0.00000  Uiso   1.00
C24    C     0.93140   0.04143  -0.00006   0.00000  Uiso   1.00
N6     N     0.01974   0.02141   0.00003   0.00000  Uiso   1.00
C25    C     0.01741   0.04148  -0.00003   0.00000  Uiso   1.00
N7     N     0.00018   0.05088  -0.00008   0.00000  Uiso   1.00
C26    C     0.03511   0.05125  -0.00004   0.00000  Uiso   1.00
C27    C     0.04909   0.03693   0.00002   0.00000  Uiso   1.00
C28    C     0.03944   0.01901   0.00005   0.00000  Uiso   1.00
C29    C     0.06896   0.04143   0.00002   0.00000  Uiso   1.00
C30    C     0.07441   0.06165  -0.00003   0.00000  Uiso   1.00
C31    C     0.05970   0.07678  -0.00011   0.00000  Uiso   1.00
C32    C     0.03974   0.07144  -0.00011   0.00000  Uiso   1.00
N8     N     0.04866   0.00148   0.00008   0.00000  Uiso   1.00
H1     H     0.07979   0.97330  -0.00000   0.00000  Uiso   1.00
H2     H     0.02832   0.92038   0.00041   0.00000  Uiso   1.00
H3     H     0.97207   0.92037  -0.00037   0.00000  Uiso   1.00
H4     H     0.92057   0.97326   0.00005   0.00000  Uiso   1.00
H5     H     0.97207   0.08257  -0.00016   0.00000  Uiso   1.00
H6     H     0.92057   0.02968  -0.00002   0.00000  Uiso   1.00
H7     H     0.07979   0.02968   0.00007   0.00000  Uiso   1.00
H8     H     0.02830   0.08258  -0.00018   0.00000  Uiso   1.00
C33    C     0.09420   0.06704   0.00000   0.00000  Uiso   1.00
C34    C     0.09953   0.08708  -0.00006   0.00000  Uiso   1.00
C35    C     0.08503   0.10201  -0.00016   0.00000  Uiso   1.00
C36    C     0.06525   0.09685  -0.00019   0.00000  Uiso   1.00
C37    C     0.09421   0.93594   0.00001   0.00000  Uiso   1.00
C38    C     0.09954   0.91590   0.00014   0.00000  Uiso   1.00
C39    C     0.08505   0.90097   0.00039   0.00000  Uiso   1.00
C40    C     0.06527   0.90612   0.00042   0.00000  Uiso   1.00
C41    C     0.93512   0.90609  -0.00045   0.00000  Uiso   1.00
C42    C     0.91535   0.90092  -0.00042   0.00000  Uiso   1.00
C43    C     0.90085   0.91585  -0.00017   0.00000  Uiso   1.00
C44    C     0.90617   0.93589  -0.00003   0.00000  Uiso   1.00
C45    C     0.93512   0.09685  -0.00018   0.00000  Uiso   1.00
C46    C     0.91535   0.10201  -0.00015   0.00000  Uiso   1.00
C47    C     0.90085   0.08708  -0.00010   0.00000  Uiso   1.00
C48    C     0.90617   0.06704  -0.00009   0.00000  Uiso   1.00
H9     H     0.10549   0.05575   0.00008   0.00000  Uiso   1.00
O1     O     0.11920   0.09251  -0.00004   0.00000  Uiso   1.00
O2     O     0.09063   0.12195  -0.00024   0.00000  Uiso   1.00
H10    H     0.05431   0.10848  -0.00026   0.00000  Uiso   1.00
H11    H     0.10550   0.94724  -0.00016   0.00000  Uiso   1.00
O3     O     0.11922   0.91047   0.00005   0.00000  Uiso   1.00
O4     O     0.09065   0.88103   0.00060   0.00000  Uiso   1.00
H12    H     0.05433   0.89449   0.00057   0.00000  Uiso   1.00
H13    H     0.94607   0.89446  -0.00062   0.00000  Uiso   1.00
O5     O     0.90975   0.88098  -0.00061   0.00000  Uiso   1.00
O6     O     0.88118   0.91041  -0.00008   0.00000  Uiso   1.00
H14    H     0.89488   0.94718   0.00014   0.00000  Uiso   1.00
H15    H     0.94607   0.10848  -0.00025   0.00000  Uiso   1.00
O7     O     0.90975   0.12196  -0.00017   0.00000  Uiso   1.00
O8     O     0.88118   0.09252  -0.00005   0.00000  Uiso   1.00
H16    H     0.89488   0.05575  -0.00007   0.00000  Uiso   1.00
Ni1    Ni    0.00018   0.00148   0.00001   0.00000  Uiso   1.00
C49    C     0.43137   0.54139   0.50011   0.00000  Uiso   1.00
C50    C     0.42592   0.56161   0.50004   0.00000  Uiso   1.00
C51    C     0.44062   0.57674   0.49984   0.00000  Uiso   1.00
C52    C     0.46059   0.57141   0.49981   0.00000  Uiso   1.00
C53    C     0.46522   0.55123   0.49988   0.00000  Uiso   1.00
C54    C     0.45124   0.53690   0.49998   0.00000  Uiso   1.00
C55    C     0.46089   0.51898   0.49997   0.00000  Uiso   1.00
N9     N     0.48060   0.52138   0.49992   0.00000  Uiso   1.00
C56    C     0.48292   0.54146   0.49988   0.00000  Uiso   1.00
N10    N     0.50016   0.55086   0.49997   0.00000  Uiso   1.00
C57    C     0.51738   0.54146   0.50006   0.00000  Uiso   1.00
N11    N     0.51972   0.52139   0.50004   0.00000  Uiso   1.00
C58    C     0.53941   0.51899   0.50008   0.00000  Uiso   1.00
C59    C     0.54907   0.53692   0.50016   0.00000  Uiso   1.00
C60    C     0.53508   0.55123   0.50017   0.00000  Uiso   1.00
N12    N     0.51972   0.48153   0.50013   0.00000  Uiso   1.00
C61    C     0.53942   0.48394   0.50013   0.00000  Uiso   1.00
N13    N     0.54864   0.50146   0.50011   0.00000  Uiso   1.00
C62    C     0.54907   0.46601   0.50018   0.00000  Uiso   1.00
C63    C     0.53508   0.45169   0.50025   0.00000  Uiso   1.00
C64    C     0.51739   0.46146   0.50020   0.00000  Uiso   1.00
C65    C     0.53970   0.57143   0.50033   0.00000  Uiso   1.00
C66    C     0.55966   0.57677   0.50041   0.00000  Uiso   1.00
C67    C     0.57437   0.56165   0.50034   0.00000  Uiso   1.00
C68    C     0.56894   0.54142   0.50024   0.00000  Uiso   1.00
C69    C     0.53971   0.43150   0.50031   0.00000  Uiso   1.00
C70    C     0.55966   0.42616   0.50026   0.00000  Uiso   1.00
C71    C     0.57438   0.44128   0.50014   0.00000  Uiso   1.00
C72    C     0.56894   0.46151   0.50013   0.00000  Uiso   1.00
N14    N     0.48061   0.48152   0.50000   0.00000  Uiso   1.00
C73    C     0.48292   0.46146   0.50007   0.00000  Uiso   1.00
N15    N     0.50016   0.45205   0.50017   0.00000  Uiso   1.00
C74    C     0.46523   0.45168   0.50008   0.00000  Uiso   1.00
C75    C     0.45125   0.46600   0.50003   0.00000  Uiso   1.00
C76    C     0.46089   0.48393   0.49998   0.00000  Uiso   1.00
C77    C     0.43138   0.46151   0.50008   0.00000  Uiso   1.00
C78    C     0.42593   0.44129   0.50014   0.00000  Uiso   1.00
C79    C     0.44064   0.42616   0.50020   0.00000  Uiso   1.00
C80    C     0.46060   0.43149   0.50018   0.00000  Uiso   1.00
N16    N     0.45168   0.50145   0.49999   0.00000  Uiso   1.00
H17    H     0.42055   0.52963   0.50025   0.00000  Uiso   1.00
H18    H     0.47202   0.58256   0.49970   0.00000  Uiso   1.00
H19    H     0.52826   0.58256   0.50041   0.00000  Uiso   1.00
H20    H     0.57977   0.52967   0.50023   0.00000  Uiso   1.00
H21    H     0.52827   0.42036   0.50038   0.00000  Uiso   1.00
H22    H     0.57977   0.47326   0.50005   0.00000  Uiso   1.00
H23    H     0.42056   0.47326   0.50007   0.00000  Uiso   1.00
H24    H     0.47203   0.42035   0.50024   0.00000  Uiso   1.00
C81    C     0.40614   0.43591   0.50014   0.00000  Uiso   1.00
C82    C     0.40081   0.41587   0.50016   0.00000  Uiso   1.00
C83    C     0.41530   0.40094   0.50023   0.00000  Uiso   1.00
C84    C     0.43508   0.40609   0.50026   0.00000  Uiso   1.00
C85    C     0.40612   0.56698   0.50013   0.00000  Uiso   1.00
C86    C     0.40079   0.58702   0.50000   0.00000  Uiso   1.00
C87    C     0.41528   0.60196   0.49971   0.00000  Uiso   1.00
C88    C     0.43506   0.59681   0.49964   0.00000  Uiso   1.00
C89    C     0.56521   0.59684   0.50057   0.00000  Uiso   1.00
C90    C     0.58498   0.60202   0.50054   0.00000  Uiso   1.00
C91    C     0.59948   0.58709   0.50040   0.00000  Uiso   1.00
C92    C     0.59417   0.56705   0.50034   0.00000  Uiso   1.00
C93    C     0.56521   0.40609   0.50033   0.00000  Uiso   1.00
C94    C     0.58498   0.40092   0.50027   0.00000  Uiso   1.00
C95    C     0.59949   0.41584   0.50011   0.00000  Uiso   1.00
C96    C     0.59417   0.43589   0.50004   0.00000  Uiso   1.00
H25    H     0.39485   0.44720   0.50010   0.00000  Uiso   1.00
O9     O     0.38113   0.41045   0.50012   0.00000  Uiso   1.00
O10    O     0.40969   0.38099   0.50026   0.00000  Uiso   1.00
H26    H     0.44602   0.39446   0.50031   0.00000  Uiso   1.00
H27    H     0.39484   0.55568   0.50029   0.00000  Uiso   1.00
O11    O     0.38111   0.59244   0.50013   0.00000  Uiso   1.00
O12    O     0.40967   0.62190   0.49950   0.00000  Uiso   1.00
H28    H     0.44600   0.60845   0.49940   0.00000  Uiso   1.00
H29    H     0.55426   0.60847   0.50068   0.00000  Uiso   1.00
O13    O     0.59057   0.62196   0.50064   0.00000  Uiso   1.00
O14    O     0.61916   0.59254   0.50031   0.00000  Uiso   1.00
H30    H     0.60546   0.55576   0.50028   0.00000  Uiso   1.00
H31    H     0.55426   0.39446   0.50045   0.00000  Uiso   1.00
O15    O     0.59058   0.38097   0.50038   0.00000  Uiso   1.00
O16    O     0.61916   0.41040   0.50002   0.00000  Uiso   1.00
H32    H     0.60546   0.44718   0.49992   0.00000  Uiso   1.00
Ni2    Ni    0.50015   0.50146   0.50002   0.00000  Uiso   1.00
C97    C     0.19304   0.19395   0.02369   0.00000  Uiso   1.00
C98    C     0.19307   0.19391   0.97616   0.00000  Uiso   1.00
C99    C     0.20604   0.20671   0.95250   0.00000  Uiso   1.00
C100   C     0.21710   0.22133   0.97609   0.00000  Uiso   1.00
C101   C     0.21712   0.22132   0.02381   0.00000  Uiso   1.00
C102   C     0.20601   0.20676   0.04739   0.00000  Uiso   1.00
C103   C     0.22828   0.23518   0.95091   0.00000  Uiso   1.00
C104   C     0.22947   0.23412   0.90444   0.00000  Uiso   1.00
C105   C     0.21968   0.21878   0.88164   0.00000  Uiso   1.00
C106   C     0.20834   0.20527   0.90552   0.00000  Uiso   1.00
C107   C     0.17950   0.18150   0.04633   0.00000  Uiso   1.00
C108   C     0.16687   0.16882   0.02331   0.00000  Uiso   1.00
C109   C     0.16690   0.16879   0.97645   0.00000  Uiso   1.00
C110   C     0.17957   0.18142   0.95347   0.00000  Uiso   1.00
C111   C     0.20825   0.20536   0.09439   0.00000  Uiso   1.00
C112   C     0.21965   0.21884   0.11830   0.00000  Uiso   1.00
C113   C     0.22959   0.23406   0.09548   0.00000  Uiso   1.00
C114   C     0.22845   0.23508   0.04899   0.00000  Uiso   1.00
C115   C     0.24087   0.24788   0.11974   0.00000  Uiso   1.00
C116   C     0.24203   0.24621   0.16613   0.00000  Uiso   1.00
C117   C     0.23244   0.23127   0.18825   0.00000  Uiso   1.00
C118   C     0.22121   0.21740   0.16504   0.00000  Uiso   1.00
C119   C     0.22133   0.21728   0.83493   0.00000  Uiso   1.00
C120   C     0.23249   0.23121   0.81175   0.00000  Uiso   1.00
C121   C     0.24190   0.24628   0.83387   0.00000  Uiso   1.00
C122   C     0.24065   0.24801   0.88021   0.00000  Uiso   1.00
H33    H     0.23641   0.24704   0.96614   0.00000  Uiso   1.00
H34    H     0.20186   0.19341   0.88643   0.00000  Uiso   1.00
H35    H     0.17789   0.18174   0.08206   0.00000  Uiso   1.00
H36    H     0.17802   0.18159   0.91771   0.00000  Uiso   1.00
H37    H     0.20170   0.19357   0.11352   0.00000  Uiso   1.00
H38    H     0.23677   0.24679   0.03372   0.00000  Uiso   1.00
H39    H     0.24866   0.25974   0.10297   0.00000  Uiso   1.00
O17    O     0.25270   0.25915   0.19235   0.00000  Uiso   1.00
O18    O     0.23456   0.23092   0.23408   0.00000  Uiso   1.00
H40    H     0.21373   0.20576   0.18326   0.00000  Uiso   1.00
H41    H     0.21398   0.20555   0.81671   0.00000  Uiso   1.00
O19    O     0.23471   0.23081   0.76597   0.00000  Uiso   1.00
O20    O     0.25250   0.25928   0.80771   0.00000  Uiso   1.00
H42    H     0.24831   0.25996   0.89697   0.00000  Uiso   1.00
C123   C     0.15401   0.15626   0.95306   0.00000  Uiso   1.00
C124   C     0.14135   0.14372   0.97633   0.00000  Uiso   1.00
C125   C     0.14133   0.14374   0.02338   0.00000  Uiso   1.00
C126   C     0.15397   0.15631   0.04667   0.00000  Uiso   1.00
H43    H     0.15381   0.15613   0.91690   0.00000  Uiso   1.00
O21    O     0.12869   0.13107   0.95339   0.00000  Uiso   1.00
O22    O     0.12866   0.13112   0.04630   0.00000  Uiso   1.00
H44    H     0.15375   0.15621   0.08282   0.00000  Uiso   1.00
C127   C     0.78317   0.22125   0.02389   0.00000  Uiso   1.00
C128   C     0.79441   0.20680   0.04755   0.00000  Uiso   1.00
C129   C     0.80734   0.19394   0.02387   0.00000  Uiso   1.00
C130   C     0.80720   0.19383   0.97634   0.00000  Uiso   1.00
C131   C     0.79420   0.20660   0.95266   0.00000  Uiso   1.00
C132   C     0.78326   0.22130   0.97617   0.00000  Uiso   1.00
C133   C     0.82068   0.18134   0.95363   0.00000  Uiso   1.00
C134   C     0.83341   0.16875   0.97661   0.00000  Uiso   1.00
C135   C     0.83350   0.16880   0.02347   0.00000  Uiso   1.00
C136   C     0.82091   0.18149   0.04650   0.00000  Uiso   1.00
C137   C     0.77159   0.23481   0.04895   0.00000  Uiso   1.00
C138   C     0.77056   0.23391   0.09547   0.00000  Uiso   1.00
C139   C     0.78081   0.21893   0.11842   0.00000  Uiso   1.00
C140   C     0.79231   0.20552   0.09461   0.00000  Uiso   1.00
C141   C     0.77233   0.23535   0.95090   0.00000  Uiso   1.00
C142   C     0.77103   0.23420   0.90445   0.00000  Uiso   1.00
C143   C     0.78052   0.21865   0.88177   0.00000  Uiso   1.00
C144   C     0.79178   0.20506   0.90572   0.00000  Uiso   1.00
C145   C     0.77872   0.21704   0.83510   0.00000  Uiso   1.00
C146   C     0.76771   0.23108   0.81184   0.00000  Uiso   1.00
C147   C     0.75860   0.24636   0.83384   0.00000  Uiso   1.00
C148   C     0.76001   0.24821   0.88014   0.00000  Uiso   1.00
C149   C     0.84644   0.15630   0.04681   0.00000  Uiso   1.00
C150   C     0.85906   0.14374   0.02350   0.00000  Uiso   1.00
C151   C     0.85900   0.14373   0.97646   0.00000  Uiso   1.00
C152   C     0.84629   0.15625   0.95320   0.00000  Uiso   1.00
H45    H     0.82216   0.18150   0.91786   0.00000  Uiso   1.00
H46    H     0.82256   0.18171   0.08222   0.00000  Uiso   1.00
H47    H     0.76287   0.24620   0.03354   0.00000  Uiso   1.00
H48    H     0.79905   0.19389   0.11388   0.00000  Uiso   1.00
H49    H     0.76459   0.24749   0.96607   0.00000  Uiso   1.00
H50    H     0.79809   0.19308   0.88676   0.00000  Uiso   1.00
H51    H     0.78584   0.20515   0.81698   0.00000  Uiso   1.00
O23    O     0.76534   0.23059   0.76609   0.00000  Uiso   1.00
O24    O     0.74812   0.25946   0.80760   0.00000  Uiso   1.00
H52    H     0.75259   0.26033   0.89680   0.00000  Uiso   1.00
H53    H     0.84669   0.15620   0.08297   0.00000  Uiso   1.00
O25    O     0.87176   0.13111   0.04641   0.00000  Uiso   1.00
O26    O     0.87165   0.13110   0.95350   0.00000  Uiso   1.00
H54    H     0.84645   0.15612   0.91705   0.00000  Uiso   1.00
C153   C     0.77940   0.21760   0.16520   0.00000  Uiso   1.00
C154   C     0.76803   0.23136   0.18833   0.00000  Uiso   1.00
C155   C     0.75813   0.24608   0.16608   0.00000  Uiso   1.00
C156   C     0.75913   0.24761   0.11964   0.00000  Uiso   1.00
H55    H     0.78709   0.20613   0.18352   0.00000  Uiso   1.00
O27    O     0.76606   0.23114   0.23419   0.00000  Uiso   1.00
O28    O     0.74735   0.25894   0.19223   0.00000  Uiso   1.00
H56    H     0.75112   0.25931   0.10276   0.00000  Uiso   1.00
C157   C     0.78317   0.78168   0.02385   0.00000  Uiso   1.00
C158   C     0.79446   0.79609   0.04750   0.00000  Uiso   1.00
C159   C     0.80739   0.80894   0.02379   0.00000  Uiso   1.00
C160   C     0.80717   0.80914   0.97626   0.00000  Uiso   1.00
C161   C     0.79417   0.79635   0.95261   0.00000  Uiso   1.00
C162   C     0.78329   0.78161   0.97614   0.00000  Uiso   1.00
C163   C     0.82058   0.82169   0.95352   0.00000  Uiso   1.00
C164   C     0.83336   0.83423   0.97647   0.00000  Uiso   1.00
C165   C     0.83355   0.83408   0.02332   0.00000  Uiso   1.00
C166   C     0.82101   0.82134   0.04638   0.00000  Uiso   1.00
C167   C     0.77148   0.76820   0.04891   0.00000  Uiso   1.00
C168   C     0.77050   0.76908   0.09545   0.00000  Uiso   1.00
C169   C     0.78085   0.78397   0.11839   0.00000  Uiso   1.00
C170   C     0.79239   0.79735   0.09456   0.00000  Uiso   1.00
C171   C     0.77246   0.76748   0.95089   0.00000  Uiso   1.00
C172   C     0.77111   0.76866   0.90444   0.00000  Uiso   1.00
C173   C     0.78048   0.78430   0.88176   0.00000  Uiso   1.00
C174   C     0.79171   0.79792   0.90569   0.00000  Uiso   1.00
C175   C     0.77860   0.78596   0.83511   0.00000  Uiso   1.00
C176   C     0.76766   0.77187   0.81185   0.00000  Uiso   1.00
C177   C     0.75870   0.75648   0.83383   0.00000  Uiso   1.00
C178   C     0.76019   0.75459   0.88011   0.00000  Uiso   1.00
C179   C     0.84653   0.84654   0.04663   0.00000  Uiso   1.00
C180   C     0.85910   0.85915   0.02329   0.00000  Uiso   1.00
C181   C     0.85895   0.85925   0.97625   0.00000  Uiso   1.00
C182   C     0.84621   0.84677   0.95303   0.00000  Uiso   1.00
H57    H     0.82198   0.82163   0.91774   0.00000  Uiso   1.00
H58    H     0.82274   0.82102   0.08208   0.00000  Uiso   1.00
H59    H     0.76264   0.75693   0.03348   0.00000  Uiso   1.00
H60    H     0.79917   0.80897   0.11381   0.00000  Uiso   1.00
H61    H     0.76488   0.75524   0.96608   0.00000  Uiso   1.00
H62    H     0.79797   0.80992   0.88670   0.00000  Uiso   1.00
H63    H     0.78561   0.79794   0.81701   0.00000  Uiso   1.00
O29    O     0.76524   0.77240   0.76612   0.00000  Uiso   1.00
O30    O     0.74830   0.74334   0.80758   0.00000  Uiso   1.00
H64    H     0.75288   0.74238   0.89677   0.00000  Uiso   1.00
H65    H     0.84685   0.84658   0.08278   0.00000  Uiso   1.00
O31    O     0.87183   0.87175   0.04617   0.00000  Uiso   1.00
O32    O     0.87157   0.87191   0.95326   0.00000  Uiso   1.00
H66    H     0.84630   0.84696   0.91687   0.00000  Uiso   1.00
C183   C     0.77950   0.78526   0.16518   0.00000  Uiso   1.00
C184   C     0.76806   0.77156   0.18832   0.00000  Uiso   1.00
C185   C     0.75803   0.75694   0.16607   0.00000  Uiso   1.00
C186   C     0.75898   0.75544   0.11962   0.00000  Uiso   1.00
H67    H     0.78730   0.79665   0.18350   0.00000  Uiso   1.00
O33    O     0.76614   0.77175   0.23419   0.00000  Uiso   1.00
O34    O     0.74718   0.74415   0.19223   0.00000  Uiso   1.00
H68    H     0.75086   0.74383   0.10275   0.00000  Uiso   1.00
C187   C     0.19288   0.80888   0.97614   0.00000  Uiso   1.00
C188   C     0.19313   0.80908   0.02367   0.00000  Uiso   1.00
C189   C     0.20614   0.79630   0.04732   0.00000  Uiso   1.00
C190   C     0.21702   0.78156   0.02382   0.00000  Uiso   1.00
C191   C     0.21715   0.78165   0.97611   0.00000  Uiso   1.00
C192   C     0.20579   0.79602   0.95243   0.00000  Uiso   1.00
C193   C     0.22781   0.76739   0.04909   0.00000  Uiso   1.00
C194   C     0.22919   0.76858   0.09555   0.00000  Uiso   1.00
C195   C     0.21984   0.78423   0.11819   0.00000  Uiso   1.00
C196   C     0.20861   0.79785   0.09424   0.00000  Uiso   1.00
C197   C     0.17927   0.82130   0.95356   0.00000  Uiso   1.00
C198   C     0.16676   0.83406   0.97662   0.00000  Uiso   1.00
C199   C     0.16697   0.83420   0.02348   0.00000  Uiso   1.00
C200   C     0.17973   0.82164   0.04641   0.00000  Uiso   1.00
C201   C     0.20779   0.79723   0.90534   0.00000  Uiso   1.00
C202   C     0.21937   0.78388   0.88155   0.00000  Uiso   1.00
C203   C     0.22984   0.76908   0.90455   0.00000  Uiso   1.00
C204   C     0.22891   0.76825   0.95108   0.00000  Uiso   1.00
C205   C     0.24142   0.75549   0.88044   0.00000  Uiso   1.00
C206   C     0.24231   0.75695   0.83399   0.00000  Uiso   1.00
C207   C     0.23219   0.77148   0.81167   0.00000  Uiso   1.00
C208   C     0.22067   0.78513   0.83474   0.00000  Uiso   1.00
C209   C     0.22171   0.78590   0.16483   0.00000  Uiso   1.00
C210   C     0.23265   0.77182   0.18815   0.00000  Uiso   1.00
C211   C     0.24161   0.75642   0.16623   0.00000  Uiso   1.00
C212   C     0.24011   0.75451   0.11993   0.00000  Uiso   1.00
H69    H     0.23531   0.75510   0.03390   0.00000  Uiso   1.00
H70    H     0.20236   0.80986   0.11321   0.00000  Uiso   1.00
H71    H     0.17753   0.82101   0.91787   0.00000  Uiso   1.00
H72    H     0.17835   0.82157   0.08220   0.00000  Uiso   1.00
H73    H     0.20093   0.80877   0.88601   0.00000  Uiso   1.00
H74    H     0.23790   0.75710   0.96656   0.00000  Uiso   1.00
H75    H     0.24961   0.74395   0.89736   0.00000  Uiso   1.00
O35    O     0.25322   0.74418   0.80791   0.00000  Uiso   1.00
O36    O     0.23409   0.77164   0.76580   0.00000  Uiso   1.00
H76    H     0.21279   0.79645   0.81636   0.00000  Uiso   1.00
H77    H     0.21470   0.79788   0.18289   0.00000  Uiso   1.00
O37    O     0.23508   0.77239   0.23388   0.00000  Uiso   1.00
O38    O     0.25202   0.74329   0.19256   0.00000  Uiso   1.00
H78    H     0.24740   0.74228   0.10332   0.00000  Uiso   1.00
C213   C     0.15416   0.84677   0.04692   0.00000  Uiso   1.00
C214   C     0.14143   0.85928   0.02372   0.00000  Uiso   1.00
C215   C     0.14127   0.85919   0.97667   0.00000  Uiso   1.00
C216   C     0.15380   0.84655   0.95332   0.00000  Uiso   1.00
H79    H     0.15409   0.84696   0.08308   0.00000  Uiso   1.00
O39    O     0.12884   0.87196   0.04671   0.00000  Uiso   1.00
O40    O     0.12855   0.87181   0.95381   0.00000  Uiso   1.00
H80    H     0.15345   0.84659   0.91717   0.00000  Uiso   1.00
C217   C     0.69314   0.69384   0.52384   0.00000  Uiso   1.00
C218   C     0.69293   0.69402   0.47632   0.00000  Uiso   1.00
C219   C     0.70585   0.70688   0.45260   0.00000  Uiso   1.00
C220   C     0.71716   0.72128   0.47626   0.00000  Uiso   1.00
C221   C     0.71703   0.72136   0.52397   0.00000  Uiso   1.00
C222   C     0.70616   0.70660   0.54749   0.00000  Uiso   1.00
C223   C     0.72887   0.73474   0.45122   0.00000  Uiso   1.00
C224   C     0.72985   0.73388   0.40468   0.00000  Uiso   1.00
C225   C     0.71946   0.71901   0.38172   0.00000  Uiso   1.00
C226   C     0.70790   0.70565   0.40553   0.00000  Uiso   1.00
C227   C     0.67970   0.68132   0.54660   0.00000  Uiso   1.00
C228   C     0.66693   0.66877   0.52366   0.00000  Uiso   1.00
C229   C     0.66677   0.66888   0.47680   0.00000  Uiso   1.00
C230   C     0.67933   0.68160   0.45374   0.00000  Uiso   1.00
C231   C     0.70865   0.70501   0.59439   0.00000  Uiso   1.00
C232   C     0.71984   0.71865   0.61835   0.00000  Uiso   1.00
C233   C     0.72919   0.73430   0.59569   0.00000  Uiso   1.00
C234   C     0.72783   0.73550   0.54924   0.00000  Uiso   1.00
C235   C     0.74013   0.74836   0.62001   0.00000  Uiso   1.00
C236   C     0.74163   0.74645   0.66630   0.00000  Uiso   1.00
C237   C     0.73266   0.73107   0.68827   0.00000  Uiso   1.00
C238   C     0.72171   0.71699   0.66500   0.00000  Uiso   1.00
C239   C     0.72080   0.71773   0.33493   0.00000  Uiso   1.00
C240   C     0.73226   0.73143   0.31180   0.00000  Uiso   1.00
C241   C     0.74230   0.74603   0.33406   0.00000  Uiso   1.00
C242   C     0.74138   0.74751   0.38052   0.00000  Uiso   1.00
H81    H     0.73776   0.74598   0.46667   0.00000  Uiso   1.00
H82    H     0.70106   0.69409   0.38623   0.00000  Uiso   1.00
H83    H     0.67827   0.68144   0.58238   0.00000  Uiso   1.00
H84    H     0.67762   0.68187   0.41804   0.00000  Uiso   1.00
H85    H     0.70244   0.69295   0.61332   0.00000  Uiso   1.00
H86    H     0.73536   0.74778   0.53406   0.00000  Uiso   1.00
H87    H     0.74744   0.76057   0.60337   0.00000  Uiso   1.00
O41    O     0.75207   0.75957   0.69254   0.00000  Uiso   1.00
O42    O     0.73511   0.73051   0.73399   0.00000  Uiso   1.00
H88    H     0.71468   0.70503   0.68310   0.00000  Uiso   1.00
H89    H     0.71300   0.70635   0.31660   0.00000  Uiso   1.00
O43    O     0.73416   0.73125   0.26593   0.00000  Uiso   1.00
O44    O     0.75313   0.75885   0.30789   0.00000  Uiso   1.00
H90    H     0.74950   0.75911   0.39740   0.00000  Uiso   1.00
C243   C     0.65381   0.65640   0.45349   0.00000  Uiso   1.00
C244   C     0.64123   0.64380   0.47683   0.00000  Uiso   1.00
C245   C     0.64135   0.64374   0.52388   0.00000  Uiso   1.00
C246   C     0.65408   0.65623   0.54710   0.00000  Uiso   1.00
H91    H     0.65351   0.65634   0.41734   0.00000  Uiso   1.00
O45    O     0.62852   0.63119   0.45395   0.00000  Uiso   1.00
O46    O     0.62872   0.63108   0.54686   0.00000  Uiso   1.00
H92    H     0.65397   0.65606   0.58326   0.00000  Uiso   1.00
C247   C     0.28330   0.72135   0.47628   0.00000  Uiso   1.00
C248   C     0.29418   0.70661   0.45276   0.00000  Uiso   1.00
C249   C     0.30718   0.69382   0.47641   0.00000  Uiso   1.00
C250   C     0.30744   0.69403   0.52394   0.00000  Uiso   1.00
C251   C     0.29453   0.70688   0.54766   0.00000  Uiso   1.00
C252   C     0.28318   0.72125   0.52399   0.00000  Uiso   1.00
C253   C     0.32105   0.68161   0.54653   0.00000  Uiso   1.00
C254   C     0.33356   0.66885   0.52347   0.00000  Uiso   1.00
C255   C     0.33335   0.66869   0.47662   0.00000  Uiso   1.00
C256   C     0.32057   0.68124   0.45367   0.00000  Uiso   1.00
C257   C     0.27250   0.73551   0.45102   0.00000  Uiso   1.00
C258   C     0.27114   0.73434   0.40456   0.00000  Uiso   1.00
C259   C     0.28049   0.71869   0.38190   0.00000  Uiso   1.00
C260   C     0.29171   0.70507   0.40585   0.00000  Uiso   1.00
C261   C     0.27142   0.73466   0.54902   0.00000  Uiso   1.00
C262   C     0.27048   0.73382   0.59555   0.00000  Uiso   1.00
C263   C     0.28094   0.71900   0.61855   0.00000  Uiso   1.00
C264   C     0.29252   0.70566   0.59475   0.00000  Uiso   1.00
C265   C     0.27962   0.71774   0.66535   0.00000  Uiso   1.00
C266   C     0.26812   0.73140   0.68843   0.00000  Uiso   1.00
C267   C     0.25801   0.74595   0.66611   0.00000  Uiso   1.00
C268   C     0.25891   0.74741   0.61967   0.00000  Uiso   1.00
C269   C     0.34615   0.65612   0.45318   0.00000  Uiso   1.00
C270   C     0.35889   0.64362   0.47640   0.00000  Uiso   1.00
C271   C     0.35905   0.64372   0.52345   0.00000  Uiso   1.00
C272   C     0.34652   0.65636   0.54678   0.00000  Uiso   1.00
H93    H     0.32281   0.68192   0.58222   0.00000  Uiso   1.00
H94    H     0.32194   0.68128   0.41789   0.00000  Uiso   1.00
H95    H     0.26499   0.74779   0.46621   0.00000  Uiso   1.00
H96    H     0.29798   0.69307   0.38685   0.00000  Uiso   1.00
H97    H     0.26246   0.74583   0.53356   0.00000  Uiso   1.00
H98    H     0.29938   0.69412   0.61407   0.00000  Uiso   1.00
H99    H     0.28747   0.70640   0.68372   0.00000  Uiso   1.00
O47    O     0.26623   0.73125   0.73430   0.00000  Uiso   1.00
O48    O     0.24711   0.75872   0.69220   0.00000  Uiso   1.00
H100   H     0.25073   0.75896   0.60276   0.00000  Uiso   1.00
H101   H     0.34623   0.65592   0.41703   0.00000  Uiso   1.00
O49    O     0.37148   0.63094   0.45342   0.00000  Uiso   1.00
O50    O     0.37178   0.63111   0.54633   0.00000  Uiso   1.00
H102   H     0.34686   0.65633   0.58294   0.00000  Uiso   1.00
C273   C     0.27863   0.71704   0.33526   0.00000  Uiso   1.00
C274   C     0.26769   0.73113   0.31195   0.00000  Uiso   1.00
C275   C     0.25873   0.74652   0.33388   0.00000  Uiso   1.00
C276   C     0.26022   0.74842   0.38019   0.00000  Uiso   1.00
H103   H     0.28564   0.70507   0.31719   0.00000  Uiso   1.00
O51    O     0.26527   0.73057   0.26622   0.00000  Uiso   1.00
O52    O     0.24833   0.75965   0.30756   0.00000  Uiso   1.00
H104   H     0.25294   0.76064   0.39681   0.00000  Uiso   1.00
C277   C     0.28322   0.28164   0.52403   0.00000  Uiso   1.00
C278   C     0.29427   0.29626   0.54760   0.00000  Uiso   1.00
C279   C     0.30724   0.30906   0.52393   0.00000  Uiso   1.00
C280   C     0.30726   0.30903   0.47640   0.00000  Uiso   1.00
C281   C     0.29430   0.29620   0.45271   0.00000  Uiso   1.00
C282   C     0.28318   0.28165   0.47630   0.00000  Uiso   1.00
C283   C     0.32079   0.32149   0.45376   0.00000  Uiso   1.00
C284   C     0.33342   0.33416   0.47677   0.00000  Uiso   1.00
C285   C     0.33341   0.33419   0.52363   0.00000  Uiso   1.00
C286   C     0.32075   0.32155   0.54662   0.00000  Uiso   1.00
C287   C     0.27206   0.26777   0.54922   0.00000  Uiso   1.00
C288   C     0.27086   0.26884   0.59568   0.00000  Uiso   1.00
C289   C     0.28063   0.28419   0.61847   0.00000  Uiso   1.00
C290   C     0.29197   0.29772   0.59457   0.00000  Uiso   1.00
C291   C     0.27184   0.26790   0.45114   0.00000  Uiso   1.00
C292   C     0.27071   0.26890   0.40464   0.00000  Uiso   1.00
C293   C     0.28067   0.28410   0.38181   0.00000  Uiso   1.00
C294   C     0.29207   0.29758   0.40570   0.00000  Uiso   1.00
C295   C     0.27911   0.28554   0.33507   0.00000  Uiso   1.00
C296   C     0.26788   0.27167   0.31186   0.00000  Uiso   1.00
C297   C     0.25829   0.25672   0.33399   0.00000  Uiso   1.00
C298   C     0.25944   0.25507   0.38039   0.00000  Uiso   1.00
C299   C     0.34630   0.34671   0.54701   0.00000  Uiso   1.00
C300   C     0.35896   0.35925   0.52373   0.00000  Uiso   1.00
C301   C     0.35897   0.35923   0.47668   0.00000  Uiso   1.00
C302   C     0.34633   0.34667   0.45340   0.00000  Uiso   1.00
H105   H     0.32238   0.32128   0.41803   0.00000  Uiso   1.00
H106   H     0.32232   0.32135   0.58237   0.00000  Uiso   1.00
H107   H     0.26395   0.25589   0.53399   0.00000  Uiso   1.00
H108   H     0.29843   0.30959   0.61364   0.00000  Uiso   1.00
H109   H     0.26349   0.25621   0.46642   0.00000  Uiso   1.00
H110   H     0.29865   0.30934   0.38654   0.00000  Uiso   1.00
H111   H     0.28659   0.29718   0.31685   0.00000  Uiso   1.00
O53    O     0.26578   0.27200   0.26604   0.00000  Uiso   1.00
O54    O     0.24764   0.24377   0.30776   0.00000  Uiso   1.00
H112   H     0.25165   0.24320   0.39716   0.00000  Uiso   1.00
H113   H     0.34650   0.34685   0.58316   0.00000  Uiso   1.00
O55    O     0.37164   0.37189   0.54666   0.00000  Uiso   1.00
O56    O     0.37165   0.37185   0.45375   0.00000  Uiso   1.00
H114   H     0.34654   0.34677   0.41725   0.00000  Uiso   1.00
C303   C     0.27898   0.28571   0.66518   0.00000  Uiso   1.00
C304   C     0.26783   0.27177   0.68837   0.00000  Uiso   1.00
C305   C     0.25843   0.25669   0.66625   0.00000  Uiso   1.00
C306   C     0.25969   0.25495   0.61992   0.00000  Uiso   1.00
H115   H     0.28631   0.29745   0.68339   0.00000  Uiso   1.00
O57    O     0.26560   0.27216   0.73415   0.00000  Uiso   1.00
O58    O     0.24783   0.24369   0.69241   0.00000  Uiso   1.00
H116   H     0.25205   0.24298   0.60316   0.00000  Uiso   1.00
C307   C     0.69297   0.30896   0.47623   0.00000  Uiso   1.00
C308   C     0.69313   0.30909   0.52376   0.00000  Uiso   1.00
C309   C     0.70613   0.29631   0.54743   0.00000  Uiso   1.00
C310   C     0.71707   0.28161   0.52392   0.00000  Uiso   1.00
C311   C     0.71716   0.28166   0.47620   0.00000  Uiso   1.00
C312   C     0.70591   0.29611   0.45254   0.00000  Uiso   1.00
C313   C     0.72800   0.26756   0.54918   0.00000  Uiso   1.00
C314   C     0.72931   0.26871   0.59563   0.00000  Uiso   1.00
C315   C     0.71980   0.28425   0.61832   0.00000  Uiso   1.00
C316   C     0.70855   0.29784   0.59437   0.00000  Uiso   1.00
C317   C     0.67938   0.32138   0.45361   0.00000  Uiso   1.00
C318   C     0.66680   0.33408   0.47664   0.00000  Uiso   1.00
C319   C     0.66693   0.33417   0.52350   0.00000  Uiso   1.00
C320   C     0.67968   0.32160   0.54647   0.00000  Uiso   1.00
C321   C     0.70803   0.29741   0.40549   0.00000  Uiso   1.00
C322   C     0.71953   0.28400   0.38167   0.00000  Uiso   1.00
C323   C     0.72977   0.26902   0.40461   0.00000  Uiso   1.00
C324   C     0.72874   0.26810   0.45113   0.00000  Uiso   1.00
C325   C     0.74123   0.25533   0.38045   0.00000  Uiso   1.00
C326   C     0.74222   0.25687   0.33401   0.00000  Uiso   1.00
C327   C     0.73232   0.27158   0.31176   0.00000  Uiso   1.00
C328   C     0.72094   0.28533   0.33489   0.00000  Uiso   1.00
C329   C     0.72160   0.28586   0.66499   0.00000  Uiso   1.00
C330   C     0.73261   0.27182   0.68825   0.00000  Uiso   1.00
C331   C     0.74173   0.25654   0.66625   0.00000  Uiso   1.00
C332   C     0.74032   0.25470   0.61995   0.00000  Uiso   1.00
H117   H     0.73575   0.25543   0.53401   0.00000  Uiso   1.00
H118   H     0.70224   0.30982   0.61335   0.00000  Uiso   1.00
H119   H     0.67769   0.32110   0.41790   0.00000  Uiso   1.00
H120   H     0.67822   0.32147   0.58224   0.00000  Uiso   1.00
H121   H     0.70130   0.30906   0.38625   0.00000  Uiso   1.00
H122   H     0.73744   0.25670   0.46653   0.00000  Uiso   1.00
H123   H     0.74925   0.24365   0.39732   0.00000  Uiso   1.00
O59    O     0.75301   0.24402   0.30785   0.00000  Uiso   1.00
O60    O     0.73430   0.27181   0.26590   0.00000  Uiso   1.00
H124   H     0.71323   0.29679   0.31657   0.00000  Uiso   1.00
H125   H     0.71447   0.29774   0.68311   0.00000  Uiso   1.00
O61    O     0.73497   0.27231   0.73400   0.00000  Uiso   1.00
O62    O     0.75221   0.24345   0.69250   0.00000  Uiso   1.00
H126   H     0.74774   0.24257   0.60329   0.00000  Uiso   1.00
C333   C     0.65407   0.34670   0.54691   0.00000  Uiso   1.00
C334   C     0.64135   0.35921   0.52366   0.00000  Uiso   1.00
C335   C     0.64125   0.35915   0.47662   0.00000  Uiso   1.00
C336   C     0.65384   0.34657   0.45330   0.00000  Uiso   1.00
H127   H     0.65395   0.34686   0.58307   0.00000  Uiso   1.00
O63    O     0.62871   0.37185   0.54662   0.00000  Uiso   1.00
O64    O     0.62853   0.37177   0.45372   0.00000  Uiso   1.00
H128   H     0.65356   0.34665   0.41715   0.00000  Uiso   1.00
Cu1    Cu    0.25017   0.25146   0.25006   0.00000  Uiso   1.00
Cu2    Cu    0.75018   0.25148   0.25004   0.00000  Uiso   1.00
Cu3    Cu    0.75015   0.75150   0.25006   0.00000  Uiso   1.00
Cu4    Cu    0.25017   0.75148   0.25006   0.00000  Uiso   1.00
Cu5    Cu    0.25016   0.75145   0.75005   0.00000  Uiso   1.00
Cu6    Cu    0.25016   0.25149   0.75006   0.00000  Uiso   1.00
Cu7    Cu    0.75016   0.25145   0.75005   0.00000  Uiso   1.00
Cu8    Cu    0.75018   0.75145   0.75006   0.00000  Uiso   1.00
Zn1    Zn    0.11679   0.11916  -0.00015   0.00000  Uiso   1.00
Zn2    Zn    0.88359   0.11917  -0.00008   0.00000  Uiso   1.00
Zn3    Zn    0.88359   0.88376  -0.00033   0.00000  Uiso   1.00
Zn4    Zn    0.11682   0.88382   0.00031   0.00000  Uiso   1.00
Zn5    Zn    0.61674   0.61919   0.50045   0.00000  Uiso   1.00
Zn6    Zn    0.38351   0.61909   0.49983   0.00000  Uiso   1.00
Zn7    Zn    0.38353   0.38380   0.50020   0.00000  Uiso   1.00
Zn8    Zn    0.61674   0.38375   0.50019   0.00000  Uiso   1.00
loop_
_geom_bond_atom_site_label_1
_geom_bond_atom_site_label_2
_geom_bond_distance
_geom_bond_site_symmetry_2
_ccdc_geom_bond_type
C1     C2      1.411   .     A
C1     C6      1.394   .     A
C1     H1      1.084   .     S
C2     C3      1.432   .     A
C2     C37     1.403   .     A
C3     C4      1.413   .     A
C3     C40     1.403   .     A
C4     C5      1.395   .     A
C4     H2      1.084   .     S
C5     C6      1.358   .     A
C5     C8      1.378   .     A
C6     C7      1.375   .     A
C7     N1      1.358   .     A
C7     N8      1.338   1_565 A
N1     C8      1.360   .     A
N1     Ni1     1.895   1_565 S
C8     N2      1.339   .     A
N2     C9      1.339   1_455 A
C9     N2      1.339   1_655 A
C9     N3      1.360   .     A
C9     C12     1.378   .     A
N3     C10     1.359   .     A
N3     Ni1     1.895   1_665 S
C10    C11     1.375   .     A
C10    N5      1.338   1_565 A
C11    C12     1.358   .     A
C11    C20     1.394   .     A
C12    C17     1.395   .     A
N4     C13     1.359   .     A
N4     C16     1.360   .     A
N4     Ni1     1.895   1_655 S
C13    N5      1.337   .     A
C13    C14     1.375   .     A
N5     C10     1.338   1_545 A
C14    C15     1.358   .     A
C14    C24     1.394   .     A
C15    C16     1.378   .     A
C15    C21     1.395   .     A
C16    N7      1.339   1_655 A
C17    C18     1.413   .     A
C17    H3      1.084   .     S
C18    C19     1.432   .     A
C18    C41     1.403   .     A
C19    C20     1.411   .     A
C19    C44     1.403   .     A
C20    H4      1.084   .     S
C21    C22     1.413   .     A
C21    H5      1.084   .     S
C22    C23     1.432   .     A
C22    C45     1.403   .     A
C23    C24     1.411   .     A
C23    C48     1.403   .     A
C24    H6      1.084   .     S
N6     C25     1.360   .     A
N6     C28     1.359   .     A
N6     Ni1     1.895   .     S
C25    N7      1.339   .     A
C25    C26     1.378   .     A
N7     C16     1.339   1_455 A
C26    C27     1.358   .     A
C26    C32     1.395   .     A
C27    C28     1.375   .     A
C27    C29     1.394   .     A
C28    N8      1.337   .     A
C29    C30     1.411   .     A
C29    H7      1.084   .     S
C30    C31     1.432   .     A
C30    C33     1.403   .     A
C31    C32     1.413   .     A
C31    C36     1.403   .     A
C32    H8      1.084   .     S
N8     C7      1.338   1_545 A
C33    C34     1.397   .     A
C33    H9      1.084   .     S
C34    C35     1.412   .     A
C34    O1      1.396   .     S
C35    C36     1.398   .     A
C35    O2      1.396   .     S
C36    H10     1.084   .     S
C37    C38     1.397   .     A
C37    H11     1.084   .     S
C38    C39     1.412   .     A
C38    O3      1.396   .     S
C39    C40     1.398   .     A
C39    O4      1.396   .     S
C40    H12     1.084   .     S
C41    C42     1.398   .     A
C41    H13     1.084   .     S
C42    C43     1.412   .     A
C42    O5      1.396   .     S
C43    C44     1.397   .     A
C43    O6      1.396   .     S
C44    H14     1.084   .     S
C45    C46     1.398   .     A
C45    H15     1.084   .     S
C46    C47     1.412   .     A
C46    O7      1.396   .     S
C47    C48     1.397   .     A
C47    O8      1.396   .     S
C48    H16     1.084   .     S
O1     Zn1     1.801   .     S
O2     Zn1     1.801   .     S
O3     Zn4     1.801   .     S
O4     Zn4     1.801   .     S
O5     Zn3     1.801   .     S
O6     Zn3     1.801   .     S
O7     Zn2     1.801   .     S
O8     Zn2     1.801   .     S
Ni1    N4      1.895   1_455 S
Ni1    N1      1.895   1_545 S
Ni1    N3      1.895   1_445 S
C49    C50     1.410   .     A
C49    C54     1.394   .     A
C49    H17     1.084   .     S
C50    C51     1.432   .     A
C50    C85     1.403   .     A
C51    C52     1.413   .     A
C51    C88     1.403   .     A
C52    C53     1.395   .     A
C52    H18     1.084   .     S
C53    C54     1.358   .     A
C53    C56     1.378   .     A
C54    C55     1.375   .     A
C55    N9      1.359   .     A
C55    N16     1.337   .     A
N9     C56     1.360   .     A
N9     Ni2     1.894   .     S
C56    N10     1.339   .     A
N10    C57     1.338   .     A
C57    N11     1.360   .     A
C57    C60     1.378   .     A
N11    C58     1.358   .     A
N11    Ni2     1.895   .     S
C58    C59     1.375   .     A
C58    N13     1.338   .     A
C59    C60     1.358   .     A
C59    C68     1.394   .     A
C60    C65     1.395   .     A
N12    C61     1.358   .     A
N12    C64     1.360   .     A
N12    Ni2     1.895   .     S
C61    N13     1.337   .     A
C61    C62     1.376   .     A
C62    C63     1.358   .     A
C62    C72     1.394   .     A
C63    C64     1.378   .     A
C63    C69     1.395   .     A
C64    N15     1.338   .     A
C65    C66     1.413   .     A
C65    H19     1.084   .     S
C66    C67     1.432   .     A
C66    C89     1.403   .     A
C67    C68     1.411   .     A
C67    C92     1.403   .     A
C68    H20     1.084   .     S
C69    C70     1.413   .     A
C69    H21     1.084   .     S
C70    C71     1.432   .     A
C70    C93     1.403   .     A
C71    C72     1.411   .     A
C71    C96     1.403   .     A
C72    H22     1.084   .     S
N14    C73     1.359   .     A
N14    C76     1.359   .     A
N14    Ni2     1.895   .     S
C73    N15     1.339   .     A
C73    C74     1.378   .     A
C74    C75     1.358   .     A
C74    C80     1.395   .     A
C75    C76     1.375   .     A
C75    C77     1.394   .     A
C76    N16     1.337   .     A
C77    C78     1.411   .     A
C77    H23     1.084   .     S
C78    C79     1.432   .     A
C78    C81     1.403   .     A
C79    C80     1.413   .     A
C79    C84     1.403   .     A
C80    H24     1.084   .     S
C81    C82     1.397   .     A
C81    H25     1.084   .     S
C82    C83     1.412   .     A
C82    O9      1.396   .     S
C83    C84     1.398   .     A
C83    O10     1.396   .     S
C84    H26     1.084   .     S
C85    C86     1.397   .     A
C85    H27     1.084   .     S
C86    C87     1.412   .     A
C86    O11     1.396   .     S
C87    C88     1.398   .     A
C87    O12     1.396   .     S
C88    H28     1.084   .     S
C89    C90     1.398   .     A
C89    H29     1.084   .     S
C90    C91     1.412   .     A
C90    O13     1.396   .     S
C91    C92     1.397   .     A
C91    O14     1.396   .     S
C92    H30     1.084   .     S
C93    C94     1.397   .     A
C93    H31     1.084   .     S
C94    C95     1.412   .     A
C94    O15     1.396   .     S
C95    C96     1.397   .     A
C95    O16     1.396   .     S
C96    H32     1.084   .     S
O9     Zn7     1.801   .     S
O10    Zn7     1.801   .     S
O11    Zn6     1.801   .     S
O12    Zn6     1.801   .     S
O13    Zn5     1.801   .     S
O14    Zn5     1.801   .     S
O15    Zn8     1.801   .     S
O16    Zn8     1.801   .     S
C97    C98     1.424   1_554 A
C97    C102    1.427   .     A
C97    C107    1.422   .     A
C98    C97     1.424   1_556 A
C98    C99     1.426   .     A
C98    C110    1.422   .     A
C99    C100    1.428   .     A
C99    C106    1.420   .     A
C100   C101    1.430   1_556 A
C100   C103    1.423   .     A
C101   C100    1.430   1_554 A
C101   C102    1.428   .     A
C101   C114    1.424   .     A
C102   C111    1.420   .     A
C103   C104    1.397   .     A
C103   H33     1.075   .     S
C104   C105    1.407   .     A
C104   C122    1.410   .     A
C105   C106    1.394   .     A
C105   C119    1.408   .     A
C106   H34     1.077   .     S
C107   C108    1.396   .     A
C107   H35     1.077   .     S
C108   C109    1.404   1_554 A
C108   C126    1.407   .     A
C109   C108    1.404   1_556 A
C109   C110    1.396   .     A
C109   C123    1.407   .     A
C110   H36     1.077   .     S
C111   C112    1.394   .     A
C111   H37     1.077   .     S
C112   C113    1.407   .     A
C112   C118    1.408   .     A
C113   C114    1.397   .     A
C113   C115    1.410   .     A
C114   H38     1.075   .     S
C115   C116    1.397   .     A
C115   H39     1.084   .     S
C116   C117    1.372   .     A
C116   O17     1.381   .     S
C117   C118    1.395   .     A
C117   O18     1.381   .     S
C118   H40     1.083   .     S
C119   C120    1.395   .     A
C119   H41     1.083   .     S
C120   C121    1.372   .     A
C120   O19     1.381   .     S
C121   C122    1.396   .     A
C121   O20     1.381   .     S
C122   H42     1.084   .     S
O17    Cu1     1.813   .     S
O18    Cu1     1.811   .     S
O19    Cu6     1.811   .     S
O20    Cu6     1.813   .     S
C123   C124    1.396   .     A
C123   H43     1.084   .     S
C124   C125    1.410   1_556 A
C124   O21     1.396   .     S
C125   C124    1.410   1_554 A
C125   C126    1.396   .     A
C125   O22     1.395   .     S
C126   H44     1.084   .     S
O21    Zn1     1.801   1_556 S
O22    Zn1     1.801   .     S
C127   C128    1.428   .     A
C127   C132    1.430   1_554 A
C127   C137    1.424   .     A
C128   C129    1.427   .     A
C128   C140    1.420   .     A
C129   C130    1.424   1_554 A
C129   C136    1.422   .     A
C130   C129    1.424   1_556 A
C130   C131    1.426   .     A
C130   C133    1.422   .     A
C131   C132    1.427   .     A
C131   C144    1.420   .     A
C132   C127    1.430   1_556 A
C132   C141    1.423   .     A
C133   C134    1.396   .     A
C133   H45     1.077   .     S
C134   C135    1.404   1_556 A
C134   C152    1.407   .     A
C135   C134    1.404   1_554 A
C135   C136    1.397   .     A
C135   C149    1.407   .     A
C136   H46     1.076   .     S
C137   C138    1.397   .     A
C137   H47     1.075   .     S
C138   C139    1.407   .     A
C138   C156    1.410   .     A
C139   C140    1.394   .     A
C139   C153    1.408   .     A
C140   H48     1.077   .     S
C141   C142    1.397   .     A
C141   H49     1.075   .     S
C142   C143    1.407   .     A
C142   C148    1.409   .     A
C143   C144    1.394   .     A
C143   C145    1.408   .     A
C144   H50     1.077   .     S
C145   C146    1.395   .     A
C145   H51     1.083   .     S
C146   C147    1.372   .     A
C146   O23     1.381   .     S
C147   C148    1.396   .     A
C147   O24     1.381   .     S
C148   H52     1.084   .     S
C149   C150    1.396   .     A
C149   H53     1.084   .     S
C150   C151    1.410   1_554 A
C150   O25     1.395   .     S
C151   C150    1.410   1_556 A
C151   C152    1.396   .     A
C151   O26     1.395   .     S
C152   H54     1.084   .     S
O23    Cu7     1.811   .     S
O24    Cu7     1.813   .     S
O25    Zn2     1.801   .     S
O26    Zn2     1.801   1_556 S
C153   C154    1.395   .     A
C153   H55     1.083   .     S
C154   C155    1.372   .     A
C154   O27     1.381   .     S
C155   C156    1.397   .     A
C155   O28     1.382   .     S
C156   H56     1.084   .     S
O27    Cu2     1.812   .     S
O28    Cu2     1.814   .     S
C157   C158    1.428   .     A
C157   C162    1.430   1_554 A
C157   C167    1.424   .     A
C158   C159    1.427   .     A
C158   C170    1.420   .     A
C159   C160    1.425   1_554 A
C159   C166    1.422   .     A
C160   C159    1.425   1_556 A
C160   C161    1.426   .     A
C160   C163    1.422   .     A
C161   C162    1.427   .     A
C161   C174    1.420   .     A
C162   C157    1.430   1_556 A
C162   C171    1.423   .     A
C163   C164    1.396   .     A
C163   H57     1.077   .     S
C164   C165    1.404   1_556 A
C164   C182    1.407   .     A
C165   C164    1.404   1_554 A
C165   C166    1.397   .     A
C165   C179    1.407   .     A
C166   H58     1.077   .     S
C167   C168    1.397   .     A
C167   H59     1.075   .     S
C168   C169    1.407   .     A
C168   C186    1.410   .     A
C169   C170    1.394   .     A
C169   C183    1.408   .     A
C170   H60     1.077   .     S
C171   C172    1.397   .     A
C171   H61     1.075   .     S
C172   C173    1.407   .     A
C172   C178    1.410   .     A
C173   C174    1.394   .     A
C173   C175    1.408   .     A
C174   H62     1.077   .     S
C175   C176    1.395   .     A
C175   H63     1.083   .     S
C176   C177    1.372   .     A
C176   O29     1.381   .     S
C177   C178    1.397   .     A
C177   O30     1.381   .     S
C178   H64     1.084   .     S
C179   C180    1.397   .     A
C179   H65     1.084   .     S
C180   C181    1.410   1_554 A
C180   O31     1.395   .     S
C181   C180    1.410   1_556 A
C181   C182    1.396   .     A
C181   O32     1.396   .     S
C182   H66     1.084   .     S
O29    Cu8     1.811   .     S
O30    Cu8     1.813   .     S
O31    Zn3     1.801   .     S
O32    Zn3     1.801   1_556 S
C183   C184    1.395   .     A
C183   H67     1.083   .     S
C184   C185    1.372   .     A
C184   O33     1.381   .     S
C185   C186    1.397   .     A
C185   O34     1.382   .     S
C186   H68     1.084   .     S
O33    Cu3     1.811   .     S
O34    Cu3     1.814   .     S
C187   C188    1.425   1_556 A
C187   C192    1.427   .     A
C187   C197    1.422   .     A
C188   C187    1.425   1_554 A
C188   C189    1.426   .     A
C188   C200    1.422   .     A
C189   C190    1.427   .     A
C189   C196    1.420   .     A
C190   C191    1.430   1_554 A
C190   C193    1.423   .     A
C191   C190    1.430   1_556 A
C191   C192    1.428   .     A
C191   C204    1.423   .     A
C192   C201    1.420   .     A
C193   C194    1.398   .     A
C193   H69     1.075   .     S
C194   C195    1.407   .     A
C194   C212    1.410   .     A
C195   C196    1.394   .     A
C195   C209    1.408   .     A
C196   H70     1.077   .     S
C197   C198    1.397   .     A
C197   H71     1.076   .     S
C198   C199    1.404   1_556 A
C198   C216    1.407   .     A
C199   C198    1.404   1_554 A
C199   C200    1.396   .     A
C199   C213    1.407   .     A
C200   H72     1.077   .     S
C201   C202    1.394   .     A
C201   H73     1.077   .     S
C202   C203    1.407   .     A
C202   C208    1.408   .     A
C203   C204    1.397   .     A
C203   C205    1.410   .     A
C204   H74     1.075   .     S
C205   C206    1.397   .     A
C205   H75     1.084   .     S
C206   C207    1.372   .     A
C206   O35     1.381   .     S
C207   C208    1.395   .     A
C207   O36     1.381   .     S
C208   H76     1.083   .     S
C209   C210    1.395   .     A
C209   H77     1.083   .     S
C210   C211    1.372   .     A
C210   O37     1.381   .     S
C211   C212    1.397   .     A
C211   O38     1.381   .     S
C212   H78     1.084   .     S
O35    Cu5     1.813   .     S
O36    Cu5     1.811   .     S
O37    Cu4     1.811   .     S
O38    Cu4     1.814   .     S
C213   C214    1.396   .     A
C213   H79     1.084   .     S
C214   C215    1.410   1_554 A
C214   O39     1.396   .     S
C215   C214    1.410   1_556 A
C215   C216    1.396   .     A
C215   O40     1.395   .     S
C216   H80     1.084   .     S
O39    Zn4     1.801   .     S
O40    Zn4     1.801   1_556 S
C217   C218    1.424   .     A
C217   C222    1.426   .     A
C217   C227    1.422   .     A
C218   C219    1.427   .     A
C218   C230    1.422   .     A
C219   C220    1.428   .     A
C219   C226    1.420   .     A
C220   C221    1.430   .     A
C220   C223    1.424   .     A
C221   C222    1.427   .     A
C221   C234    1.423   .     A
C222   C231    1.420   .     A
C223   C224    1.397   .     A
C223   H81     1.075   .     S
C224   C225    1.407   .     A
C224   C242    1.410   .     A
C225   C226    1.394   .     A
C225   C239    1.408   .     A
C226   H82     1.076   .     S
C227   C228    1.396   .     A
C227   H83     1.077   .     S
C228   C229    1.404   .     A
C228   C246    1.407   .     A
C229   C230    1.397   .     A
C229   C243    1.407   .     A
C230   H84     1.076   .     S
C231   C232    1.394   .     A
C231   H85     1.077   .     S
C232   C233    1.407   .     A
C232   C238    1.408   .     A
C233   C234    1.397   .     A
C233   C235    1.409   .     A
C234   H86     1.075   .     S
C235   C236    1.397   .     A
C235   H87     1.084   .     S
C236   C237    1.372   .     A
C236   O41     1.381   .     S
C237   C238    1.395   .     A
C237   O42     1.381   .     S
C238   H88     1.083   .     S
C239   C240    1.395   .     A
C239   H89     1.083   .     S
C240   C241    1.372   .     A
C240   O43     1.381   .     S
C241   C242    1.397   .     A
C241   O44     1.382   .     S
C242   H90     1.084   .     S
O41    Cu8     1.813   .     S
O42    Cu8     1.811   .     S
O43    Cu3     1.811   .     S
O44    Cu3     1.814   .     S
C243   C244    1.396   .     A
C243   H91     1.084   .     S
C244   C245    1.410   .     A
C244   O45     1.395   .     S
C245   C246    1.397   .     A
C245   O46     1.396   .     S
C246   H92     1.084   .     S
O45    Zn5     1.801   .     S
O46    Zn5     1.802   .     S
C247   C248    1.427   .     A
C247   C252    1.430   .     A
C247   C257    1.423   .     A
C248   C249    1.426   .     A
C248   C260    1.420   .     A
C249   C250    1.425   .     A
C249   C256    1.422   .     A
C250   C251    1.427   .     A
C250   C253    1.422   .     A
C251   C252    1.428   .     A
C251   C264    1.420   .     A
C252   C261    1.423   .     A
C253   C254    1.396   .     A
C253   H93     1.076   .     S
C254   C255    1.404   .     A
C254   C272    1.407   .     A
C255   C256    1.396   .     A
C255   C269    1.407   .     A
C256   H94     1.077   .     S
C257   C258    1.398   .     A
C257   H95     1.075   .     S
C258   C259    1.407   .     A
C258   C276    1.410   .     A
C259   C260    1.394   .     A
C259   C273    1.408   .     A
C260   H96     1.077   .     S
C261   C262    1.397   .     A
C261   H97     1.075   .     S
C262   C263    1.407   .     A
C262   C268    1.410   .     A
C263   C264    1.394   .     A
C263   C265    1.408   .     A
C264   H98     1.077   .     S
C265   C266    1.395   .     A
C265   H99     1.083   .     S
C266   C267    1.372   .     A
C266   O47     1.381   .     S
C267   C268    1.397   .     A
C267   O48     1.381   .     S
C268   H100    1.084   .     S
C269   C270    1.396   .     A
C269   H101    1.084   .     S
C270   C271    1.410   .     A
C270   O49     1.396   .     S
C271   C272    1.396   .     A
C271   O50     1.395   .     S
C272   H102    1.084   .     S
O47    Cu5     1.811   .     S
O48    Cu5     1.813   .     S
O49    Zn6     1.801   .     S
O50    Zn6     1.801   .     S
C273   C274    1.395   .     A
C273   H103    1.083   .     S
C274   C275    1.372   .     A
C274   O51     1.381   .     S
C275   C276    1.397   .     A
C275   O52     1.382   .     S
C276   H104    1.084   .     S
O51    Cu4     1.811   .     S
O52    Cu4     1.814   .     S
C277   C278    1.428   .     A
C277   C282    1.430   .     A
C277   C287    1.423   .     A
C278   C279    1.426   .     A
C278   C290    1.420   .     A
C279   C280    1.424   .     A
C279   C286    1.422   .     A
C280   C281    1.427   .     A
C280   C283    1.422   .     A
C281   C282    1.428   .     A
C281   C294    1.420   .     A
C282   C291    1.424   .     A
C283   C284    1.396   .     A
C283   H105    1.077   .     S
C284   C285    1.404   .     A
C284   C302    1.407   .     A
C285   C286    1.396   .     A
C285   C299    1.407   .     A
C286   H106    1.077   .     S
C287   C288    1.397   .     A
C287   H107    1.075   .     S
C288   C289    1.407   .     A
C288   C306    1.410   .     A
C289   C290    1.394   .     A
C289   C303    1.408   .     A
C290   H108    1.077   .     S
C291   C292    1.397   .     A
C291   H109    1.075   .     S
C292   C293    1.407   .     A
C292   C298    1.410   .     A
C293   C294    1.394   .     A
C293   C295    1.408   .     A
C294   H110    1.077   .     S
C295   C296    1.395   .     A
C295   H111    1.083   .     S
C296   C297    1.372   .     A
C296   O53     1.381   .     S
C297   C298    1.397   .     A
C297   O54     1.381   .     S
C298   H112    1.084   .     S
C299   C300    1.397   .     A
C299   H113    1.084   .     S
C300   C301    1.410   .     A
C300   O55     1.395   .     S
C301   C302    1.396   .     A
C301   O56     1.395   .     S
C302   H114    1.084   .     S
O53    Cu1     1.811   .     S
O54    Cu1     1.813   .     S
O55    Zn7     1.801   .     S
O56    Zn7     1.801   .     S
C303   C304    1.395   .     A
C303   H115    1.083   .     S
C304   C305    1.372   .     A
C304   O57     1.381   .     S
C305   C306    1.396   .     A
C305   O58     1.381   .     S
C306   H116    1.084   .     S
O57    Cu6     1.811   .     S
O58    Cu6     1.813   .     S
C307   C308    1.424   .     A
C307   C312    1.427   .     A
C307   C317    1.422   .     A
C308   C309    1.426   .     A
C308   C320    1.422   .     A
C309   C310    1.427   .     A
C309   C316    1.420   .     A
C310   C311    1.430   .     A
C310   C313    1.423   .     A
C311   C312    1.428   .     A
C311   C324    1.424   .     A
C312   C321    1.420   .     A
C313   C314    1.397   .     A
C313   H117    1.075   .     S
C314   C315    1.407   .     A
C314   C332    1.410   .     A
C315   C316    1.394   .     A
C315   C329    1.408   .     A
C316   H118    1.077   .     S
C317   C318    1.397   .     A
C317   H119    1.076   .     S
C318   C319    1.404   .     A
C318   C336    1.407   .     A
C319   C320    1.396   .     A
C319   C333    1.407   .     A
C320   H120    1.077   .     S
C321   C322    1.395   .     A
C321   H121    1.077   .     S
C322   C323    1.407   .     A
C322   C328    1.408   .     A
C323   C324    1.397   .     A
C323   C325    1.410   .     A
C324   H122    1.075   .     S
C325   C326    1.397   .     A
C325   H123    1.084   .     S
C326   C327    1.372   .     A
C326   O59     1.382   .     S
C327   C328    1.395   .     A
C327   O60     1.381   .     S
C328   H124    1.083   .     S
C329   C330    1.395   .     A
C329   H125    1.083   .     S
C330   C331    1.372   .     A
C330   O61     1.381   .     S
C331   C332    1.396   .     A
C331   O62     1.381   .     S
C332   H126    1.084   .     S
O59    Cu2     1.814   .     S
O60    Cu2     1.812   .     S
O61    Cu7     1.811   .     S
O62    Cu7     1.813   .     S
C333   C334    1.396   .     A
C333   H127    1.084   .     S
C334   C335    1.410   .     A
C334   O63     1.396   .     S
C335   C336    1.397   .     A
C335   O64     1.396   .     S
C336   H128    1.084   .     S
O63    Zn8     1.801   .     S
O64    Zn8     1.801   .     S
Zn1    O21     1.801   1_554 S
Zn2    O26     1.801   1_554 S
Zn3    O32     1.801   1_554 S
Zn4    O40     1.801   1_554 S
