data_hof-TP_O-PcMN_O-Zntet
_audit_creation_date              2021-11-06
_audit_creation_method            'Materials Studio'
_symmetry_space_group_name_H-M    'P1'
_symmetry_Int_Tables_number       1
_symmetry_cell_setting            triclinic
loop_
_symmetry_equiv_pos_as_xyz
  x,y,z
_cell_length_a                    57.6702
_cell_length_b                    57.6792
_cell_length_c                    21.4413
_cell_angle_alpha                 89.9999
_cell_angle_beta                  89.9999
_cell_angle_gamma                 90.0000
loop_
_atom_site_label
_atom_site_type_symbol
_atom_site_fract_x
_atom_site_fract_y
_atom_site_fract_z
_atom_site_U_iso_or_equiv
_atom_site_adp_type
_atom_site_occupancy
C1     C     0.08170   0.95712  -0.00003   0.00000  Uiso   1.00
C2     C     0.08804   0.93349  -0.00001   0.00000  Uiso   1.00
C3     C     0.07049   0.91593  -0.00001   0.00000  Uiso   1.00
C4     C     0.04685   0.92227  -0.00003   0.00000  Uiso   1.00
C5     C     0.04147   0.94584  -0.00005   0.00000  Uiso   1.00
C6     C     0.05813   0.96249  -0.00006   0.00000  Uiso   1.00
C7     C     0.04670   0.98344  -0.00007   0.00000  Uiso   1.00
N1     N     0.02329   0.98066  -0.00007   0.00000  Uiso   1.00
C8     C     0.02051   0.95726  -0.00006   0.00000  Uiso   1.00
N2     N     0.00006   0.94630  -0.00003   0.00000  Uiso   1.00
C9     C     0.97961   0.95726  -0.00001   0.00000  Uiso   1.00
N3     N     0.97683   0.98067  -0.00006   0.00000  Uiso   1.00
C10    C     0.95343   0.98345  -0.00003   0.00000  Uiso   1.00
C11    C     0.94200   0.96250   0.00004   0.00000  Uiso   1.00
C12    C     0.95865   0.94584   0.00004   0.00000  Uiso   1.00
N4     N     0.97683   0.02713  -0.00011   0.00000  Uiso   1.00
C13    C     0.95343   0.02435  -0.00010   0.00000  Uiso   1.00
N5     N     0.94247   0.00390  -0.00005   0.00000  Uiso   1.00
C14    C     0.94200   0.04530  -0.00008   0.00000  Uiso   1.00
C15    C     0.95865   0.06196  -0.00008   0.00000  Uiso   1.00
C16    C     0.97961   0.05053  -0.00010   0.00000  Uiso   1.00
C17    C     0.95327   0.92228   0.00009   0.00000  Uiso   1.00
C18    C     0.92963   0.91594   0.00009   0.00000  Uiso   1.00
C19    C     0.91208   0.93350   0.00009   0.00000  Uiso   1.00
C20    C     0.91842   0.95713   0.00008   0.00000  Uiso   1.00
C21    C     0.95326   0.08552  -0.00002   0.00000  Uiso   1.00
C22    C     0.92962   0.09185   0.00002   0.00000  Uiso   1.00
C23    C     0.91207   0.07428   0.00001   0.00000  Uiso   1.00
C24    C     0.91843   0.05065  -0.00003   0.00000  Uiso   1.00
N6     N     0.02329   0.02713  -0.00007   0.00000  Uiso   1.00
C25    C     0.02052   0.05053  -0.00004   0.00000  Uiso   1.00
N7     N     0.00006   0.06149  -0.00006   0.00000  Uiso   1.00
C26    C     0.04148   0.06195   0.00002   0.00000  Uiso   1.00
C27    C     0.05813   0.04529   0.00002   0.00000  Uiso   1.00
C28    C     0.04670   0.02434  -0.00004   0.00000  Uiso   1.00
C29    C     0.08170   0.05065   0.00007   0.00000  Uiso   1.00
C30    C     0.08805   0.07428   0.00010   0.00000  Uiso   1.00
C31    C     0.07051   0.09184   0.00011   0.00000  Uiso   1.00
C32    C     0.04686   0.08552   0.00008   0.00000  Uiso   1.00
N8     N     0.05766   0.00389  -0.00005   0.00000  Uiso   1.00
H1     H     0.09462   0.97077  -0.00002   0.00000  Uiso   1.00
H2     H     0.03321   0.90935  -0.00000   0.00000  Uiso   1.00
H3     H     0.96692   0.90936   0.00011   0.00000  Uiso   1.00
H4     H     0.90550   0.97077   0.00009   0.00000  Uiso   1.00
H5     H     0.96690   0.09845   0.00000   0.00000  Uiso   1.00
H6     H     0.90552   0.03700  -0.00001   0.00000  Uiso   1.00
H7     H     0.09461   0.03700   0.00007   0.00000  Uiso   1.00
H8     H     0.03323   0.09844   0.00009   0.00000  Uiso   1.00
C33    C     0.11151   0.08070   0.00010   0.00000  Uiso   1.00
C34    C     0.11770   0.10411   0.00005   0.00000  Uiso   1.00
C35    C     0.10040   0.12144   0.00005   0.00000  Uiso   1.00
C36    C     0.07697   0.11529   0.00009   0.00000  Uiso   1.00
C37    C     0.11150   0.92705   0.00003   0.00000  Uiso   1.00
C38    C     0.11767   0.90363   0.00005   0.00000  Uiso   1.00
C39    C     0.10036   0.88632   0.00005   0.00000  Uiso   1.00
C40    C     0.07693   0.89248   0.00003   0.00000  Uiso   1.00
C41    C     0.92319   0.89249   0.00007   0.00000  Uiso   1.00
C42    C     0.89976   0.88633   0.00002   0.00000  Uiso   1.00
C43    C     0.88245   0.90364   0.00002   0.00000  Uiso   1.00
C44    C     0.88862   0.92706   0.00006   0.00000  Uiso   1.00
C45    C     0.92315   0.11530   0.00006   0.00000  Uiso   1.00
C46    C     0.89972   0.12144   0.00003   0.00000  Uiso   1.00
C47    C     0.88242   0.10411   0.00002   0.00000  Uiso   1.00
C48    C     0.88861   0.08070   0.00004   0.00000  Uiso   1.00
H9     H     0.12499   0.06761   0.00010   0.00000  Uiso   1.00
O1     O     0.14102   0.11058   0.00001   0.00000  Uiso   1.00
O2     O     0.10692   0.14474   0.00001   0.00000  Uiso   1.00
H10    H     0.06389   0.12879   0.00009   0.00000  Uiso   1.00
H11    H     0.12499   0.94013   0.00005   0.00000  Uiso   1.00
O3     O     0.14098   0.89715   0.00004   0.00000  Uiso   1.00
O4     O     0.10685   0.86301   0.00004   0.00000  Uiso   1.00
H12    H     0.06385   0.87899   0.00005   0.00000  Uiso   1.00
H13    H     0.93627   0.87900   0.00007   0.00000  Uiso   1.00
O5     O     0.89327   0.86302  -0.00002   0.00000  Uiso   1.00
O6     O     0.85914   0.89715  -0.00003   0.00000  Uiso   1.00
H14    H     0.87513   0.94014   0.00005   0.00000  Uiso   1.00
H15    H     0.93622   0.12880   0.00012   0.00000  Uiso   1.00
O7     O     0.89320   0.14474   0.00001   0.00000  Uiso   1.00
O8     O     0.85910   0.11057  -0.00001   0.00000  Uiso   1.00
H16    H     0.87514   0.06760   0.00008   0.00000  Uiso   1.00
Ni1    Ni    0.00006   0.00390  -0.00009   0.00000  Uiso   1.00
C49    C     0.41843   0.55069   0.50008   0.00000  Uiso   1.00
C50    C     0.41209   0.57432   0.50008   0.00000  Uiso   1.00
C51    C     0.42964   0.59188   0.50007   0.00000  Uiso   1.00
C52    C     0.45328   0.58554   0.50007   0.00000  Uiso   1.00
C53    C     0.45865   0.56198   0.50014   0.00000  Uiso   1.00
C54    C     0.44200   0.54532   0.50015   0.00000  Uiso   1.00
C55    C     0.45343   0.52437   0.50019   0.00000  Uiso   1.00
N9     N     0.47683   0.52715   0.50021   0.00000  Uiso   1.00
C56    C     0.47961   0.55055   0.50019   0.00000  Uiso   1.00
N10    N     0.50006   0.56151   0.50018   0.00000  Uiso   1.00
C57    C     0.52051   0.55055   0.50021   0.00000  Uiso   1.00
N11    N     0.52329   0.52715   0.50021   0.00000  Uiso   1.00
C58    C     0.54670   0.52437   0.50021   0.00000  Uiso   1.00
C59    C     0.55812   0.54533   0.50020   0.00000  Uiso   1.00
C60    C     0.54147   0.56198   0.50019   0.00000  Uiso   1.00
N12    N     0.52329   0.48069   0.50017   0.00000  Uiso   1.00
C61    C     0.54670   0.48347   0.50016   0.00000  Uiso   1.00
N13    N     0.55766   0.50392   0.50017   0.00000  Uiso   1.00
C62    C     0.55813   0.46252   0.50012   0.00000  Uiso   1.00
C63    C     0.54148   0.44586   0.50011   0.00000  Uiso   1.00
C64    C     0.52052   0.45728   0.50015   0.00000  Uiso   1.00
C65    C     0.54684   0.58555   0.50015   0.00000  Uiso   1.00
C66    C     0.57048   0.59189   0.50010   0.00000  Uiso   1.00
C67    C     0.58803   0.57433   0.50011   0.00000  Uiso   1.00
C68    C     0.58169   0.55070   0.50017   0.00000  Uiso   1.00
C69    C     0.54687   0.42230   0.50008   0.00000  Uiso   1.00
C70    C     0.57051   0.41597   0.50009   0.00000  Uiso   1.00
C71    C     0.58806   0.43353   0.50010   0.00000  Uiso   1.00
C72    C     0.58170   0.45717   0.50009   0.00000  Uiso   1.00
N14    N     0.47683   0.48068   0.50020   0.00000  Uiso   1.00
C73    C     0.47961   0.45728   0.50018   0.00000  Uiso   1.00
N15    N     0.50006   0.44632   0.50014   0.00000  Uiso   1.00
C74    C     0.45864   0.44586   0.50017   0.00000  Uiso   1.00
C75    C     0.44199   0.46252   0.50018   0.00000  Uiso   1.00
C76    C     0.45342   0.48347   0.50020   0.00000  Uiso   1.00
C77    C     0.41842   0.45716   0.50016   0.00000  Uiso   1.00
C78    C     0.41207   0.43353   0.50012   0.00000  Uiso   1.00
C79    C     0.42961   0.41596   0.50011   0.00000  Uiso   1.00
C80    C     0.45326   0.42229   0.50014   0.00000  Uiso   1.00
N16    N     0.44247   0.50392   0.50018   0.00000  Uiso   1.00
H17    H     0.40551   0.53705   0.50004   0.00000  Uiso   1.00
H18    H     0.46692   0.59846   0.50002   0.00000  Uiso   1.00
H19    H     0.53320   0.59847   0.50018   0.00000  Uiso   1.00
H20    H     0.59461   0.53706   0.50020   0.00000  Uiso   1.00
H21    H     0.53323   0.40937   0.50003   0.00000  Uiso   1.00
H22    H     0.59462   0.47081   0.50005   0.00000  Uiso   1.00
H23    H     0.40551   0.47080   0.50017   0.00000  Uiso   1.00
H24    H     0.46689   0.40936   0.50015   0.00000  Uiso   1.00
C81    C     0.38861   0.42711   0.50011   0.00000  Uiso   1.00
C82    C     0.38242   0.40369   0.50013   0.00000  Uiso   1.00
C83    C     0.39972   0.38637   0.50012   0.00000  Uiso   1.00
C84    C     0.42315   0.39251   0.50009   0.00000  Uiso   1.00
C85    C     0.38863   0.58075   0.50010   0.00000  Uiso   1.00
C86    C     0.38246   0.60417   0.50010   0.00000  Uiso   1.00
C87    C     0.39977   0.62149   0.50009   0.00000  Uiso   1.00
C88    C     0.42319   0.61533   0.50007   0.00000  Uiso   1.00
C89    C     0.57692   0.61534   0.50007   0.00000  Uiso   1.00
C90    C     0.60035   0.62150   0.50009   0.00000  Uiso   1.00
C91    C     0.61766   0.60418   0.50010   0.00000  Uiso   1.00
C92    C     0.61149   0.58077   0.50008   0.00000  Uiso   1.00
C93    C     0.57697   0.39252   0.50010   0.00000  Uiso   1.00
C94    C     0.60040   0.38637   0.50007   0.00000  Uiso   1.00
C95    C     0.61770   0.40370   0.50007   0.00000  Uiso   1.00
C96    C     0.61152   0.42711   0.50011   0.00000  Uiso   1.00
H25    H     0.37513   0.44020   0.50010   0.00000  Uiso   1.00
O9     O     0.35910   0.39723   0.50017   0.00000  Uiso   1.00
O10    O     0.39320   0.36307   0.50014   0.00000  Uiso   1.00
H26    H     0.43622   0.37901   0.50005   0.00000  Uiso   1.00
H27    H     0.37514   0.56767   0.50012   0.00000  Uiso   1.00
O11    O     0.35914   0.61065   0.50011   0.00000  Uiso   1.00
O12    O     0.39327   0.64479   0.50008   0.00000  Uiso   1.00
H28    H     0.43627   0.62882   0.50008   0.00000  Uiso   1.00
H29    H     0.56384   0.62883   0.50003   0.00000  Uiso   1.00
O13    O     0.60685   0.64481   0.50011   0.00000  Uiso   1.00
O14    O     0.64097   0.61066   0.50013   0.00000  Uiso   1.00
H30    H     0.62497   0.56769   0.50005   0.00000  Uiso   1.00
H31    H     0.56390   0.37902   0.50015   0.00000  Uiso   1.00
O15    O     0.60692   0.36307   0.50005   0.00000  Uiso   1.00
O16    O     0.64102   0.39723   0.50006   0.00000  Uiso   1.00
H32    H     0.62500   0.44020   0.50015   0.00000  Uiso   1.00
Ni2    Ni    0.50006   0.50392   0.50019   0.00000  Uiso   1.00
C97    C     0.21215   0.21581   0.06669   0.00000  Uiso   1.00
C98    C     0.22773   0.23067   0.03330   0.00000  Uiso   1.00
C99    C     0.22773   0.23067   0.96678   0.00000  Uiso   1.00
C100   C     0.21216   0.21582   0.93338   0.00000  Uiso   1.00
C101   C     0.19699   0.20066   0.96666   0.00000  Uiso   1.00
C102   C     0.19699   0.20066   0.03337   0.00000  Uiso   1.00
C103   C     0.21235   0.21672   0.86692   0.00000  Uiso   1.00
C104   C     0.22742   0.23138   0.83544   0.00000  Uiso   1.00
C105   C     0.24233   0.24531   0.86713   0.00000  Uiso   1.00
C106   C     0.24283   0.24531   0.93184   0.00000  Uiso   1.00
C107   C     0.21232   0.21672   0.13315   0.00000  Uiso   1.00
C108   C     0.22739   0.23137   0.16465   0.00000  Uiso   1.00
C109   C     0.24232   0.24529   0.13296   0.00000  Uiso   1.00
C110   C     0.24283   0.24529   0.06826   0.00000  Uiso   1.00
C111   C     0.18171   0.18522   0.06493   0.00000  Uiso   1.00
C112   C     0.16691   0.17053   0.03256   0.00000  Uiso   1.00
C113   C     0.16691   0.17054   0.96742   0.00000  Uiso   1.00
C114   C     0.18172   0.18523   0.93506   0.00000  Uiso   1.00
H33    H     0.20113   0.20659   0.83764   0.00000  Uiso   1.00
O17    O     0.22821   0.23279   0.77112   0.00000  Uiso   1.00
O18    O     0.25656   0.25929   0.83138   0.00000  Uiso   1.00
H34    H     0.25516   0.25698   0.95250   0.00000  Uiso   1.00
H35    H     0.20109   0.20659   0.16241   0.00000  Uiso   1.00
O19    O     0.22818   0.23278   0.22897   0.00000  Uiso   1.00
O20    O     0.25656   0.25926   0.16871   0.00000  Uiso   1.00
H36    H     0.25519   0.25694   0.04762   0.00000  Uiso   1.00
H37    H     0.18072   0.18382   0.11483   0.00000  Uiso   1.00
O21    O     0.15203   0.15563   0.06469   0.00000  Uiso   1.00
O22    O     0.15203   0.15564   0.93528   0.00000  Uiso   1.00
H38    H     0.18073   0.18385   0.88517   0.00000  Uiso   1.00
C115   C     0.77240   0.23068   0.03329   0.00000  Uiso   1.00
C116   C     0.78795   0.21581   0.06669   0.00000  Uiso   1.00
C117   C     0.80312   0.20065   0.03339   0.00000  Uiso   1.00
C118   C     0.80312   0.20065   0.96667   0.00000  Uiso   1.00
C119   C     0.78796   0.21581   0.93338   0.00000  Uiso   1.00
C120   C     0.77240   0.23067   0.96677   0.00000  Uiso   1.00
C121   C     0.81840   0.18522   0.93510   0.00000  Uiso   1.00
C122   C     0.83320   0.17052   0.96746   0.00000  Uiso   1.00
C123   C     0.83320   0.17052   0.03259   0.00000  Uiso   1.00
C124   C     0.81839   0.18521   0.06496   0.00000  Uiso   1.00
C125   C     0.75730   0.24532   0.06823   0.00000  Uiso   1.00
C126   C     0.75779   0.24531   0.13294   0.00000  Uiso   1.00
C127   C     0.77270   0.23138   0.16464   0.00000  Uiso   1.00
C128   C     0.78777   0.21671   0.13315   0.00000  Uiso   1.00
C129   C     0.75730   0.24531   0.93182   0.00000  Uiso   1.00
C130   C     0.75780   0.24530   0.86712   0.00000  Uiso   1.00
C131   C     0.77271   0.23136   0.83542   0.00000  Uiso   1.00
C132   C     0.78778   0.21670   0.86691   0.00000  Uiso   1.00
H39    H     0.81939   0.18383   0.88520   0.00000  Uiso   1.00
O23    O     0.84808   0.15563   0.93531   0.00000  Uiso   1.00
O24    O     0.84808   0.15562   0.06471   0.00000  Uiso   1.00
H40    H     0.81938   0.18382   0.11486   0.00000  Uiso   1.00
H41    H     0.74498   0.25700   0.04757   0.00000  Uiso   1.00
O25    O     0.74355   0.25928   0.16869   0.00000  Uiso   1.00
O26    O     0.77192   0.23279   0.22896   0.00000  Uiso   1.00
H42    H     0.79898   0.20656   0.16242   0.00000  Uiso   1.00
H43    H     0.74497   0.25698   0.95245   0.00000  Uiso   1.00
O27    O     0.74357   0.25927   0.83138   0.00000  Uiso   1.00
O28    O     0.77191   0.23276   0.77111   0.00000  Uiso   1.00
H44    H     0.79899   0.20656   0.83764   0.00000  Uiso   1.00
C133   C     0.77254   0.77696   0.96679   0.00000  Uiso   1.00
C134   C     0.78801   0.79192   0.93338   0.00000  Uiso   1.00
C135   C     0.80319   0.80707   0.96667   0.00000  Uiso   1.00
C136   C     0.80319   0.80708   0.03338   0.00000  Uiso   1.00
C137   C     0.78803   0.79193   0.06670   0.00000  Uiso   1.00
C138   C     0.77255   0.77697   0.03331   0.00000  Uiso   1.00
C139   C     0.81850   0.82248   0.06494   0.00000  Uiso   1.00
C140   C     0.83329   0.83719   0.03255   0.00000  Uiso   1.00
C141   C     0.83328   0.83718   0.96742   0.00000  Uiso   1.00
C142   C     0.81849   0.82247   0.93507   0.00000  Uiso   1.00
C143   C     0.75749   0.76227   0.93185   0.00000  Uiso   1.00
C144   C     0.75791   0.76236   0.86714   0.00000  Uiso   1.00
C145   C     0.77272   0.77640   0.83544   0.00000  Uiso   1.00
C146   C     0.78773   0.79112   0.86692   0.00000  Uiso   1.00
C147   C     0.75751   0.76228   0.06826   0.00000  Uiso   1.00
C148   C     0.75793   0.76237   0.13297   0.00000  Uiso   1.00
C149   C     0.77274   0.77641   0.16466   0.00000  Uiso   1.00
C150   C     0.78775   0.79113   0.13317   0.00000  Uiso   1.00
H45    H     0.81956   0.82383   0.11483   0.00000  Uiso   1.00
O29    O     0.84818   0.85209   0.06467   0.00000  Uiso   1.00
O30    O     0.84817   0.85207   0.93527   0.00000  Uiso   1.00
H46    H     0.81954   0.82380   0.88518   0.00000  Uiso   1.00
H47    H     0.74526   0.75050   0.95250   0.00000  Uiso   1.00
O31    O     0.74367   0.74840   0.83139   0.00000  Uiso   1.00
O32    O     0.77188   0.77504   0.77112   0.00000  Uiso   1.00
H48    H     0.79879   0.80141   0.83760   0.00000  Uiso   1.00
H49    H     0.74527   0.75051   0.04761   0.00000  Uiso   1.00
O33    O     0.74367   0.74843   0.16872   0.00000  Uiso   1.00
O34    O     0.77190   0.77506   0.22898   0.00000  Uiso   1.00
H50    H     0.79881   0.80144   0.16245   0.00000  Uiso   1.00
C151   C     0.21209   0.79192   0.93337   0.00000  Uiso   1.00
C152   C     0.22760   0.77700   0.96676   0.00000  Uiso   1.00
C153   C     0.22760   0.77700   0.03328   0.00000  Uiso   1.00
C154   C     0.21210   0.79192   0.06668   0.00000  Uiso   1.00
C155   C     0.19693   0.80707   0.03338   0.00000  Uiso   1.00
C156   C     0.19692   0.80707   0.96667   0.00000  Uiso   1.00
C157   C     0.21234   0.79108   0.13315   0.00000  Uiso   1.00
C158   C     0.22738   0.77639   0.16463   0.00000  Uiso   1.00
C159   C     0.24222   0.76238   0.13294   0.00000  Uiso   1.00
C160   C     0.24267   0.76232   0.06822   0.00000  Uiso   1.00
C161   C     0.21232   0.79108   0.86690   0.00000  Uiso   1.00
C162   C     0.22737   0.77639   0.83541   0.00000  Uiso   1.00
C163   C     0.24222   0.76240   0.86710   0.00000  Uiso   1.00
C164   C     0.24268   0.76234   0.93181   0.00000  Uiso   1.00
C165   C     0.18162   0.82248   0.93509   0.00000  Uiso   1.00
C166   C     0.16683   0.83718   0.96746   0.00000  Uiso   1.00
C167   C     0.16683   0.83718   0.03259   0.00000  Uiso   1.00
C168   C     0.18163   0.82248   0.06496   0.00000  Uiso   1.00
H51    H     0.20122   0.80132   0.16243   0.00000  Uiso   1.00
O35    O     0.22821   0.77503   0.22896   0.00000  Uiso   1.00
O36    O     0.25646   0.74842   0.16869   0.00000  Uiso   1.00
H52    H     0.25493   0.75058   0.04757   0.00000  Uiso   1.00
H53    H     0.20119   0.80130   0.83762   0.00000  Uiso   1.00
O37    O     0.22821   0.77504   0.77109   0.00000  Uiso   1.00
O38    O     0.25645   0.74843   0.83136   0.00000  Uiso   1.00
H54    H     0.25496   0.75062   0.95245   0.00000  Uiso   1.00
H55    H     0.18059   0.82384   0.88520   0.00000  Uiso   1.00
O39    O     0.15195   0.85208   0.93533   0.00000  Uiso   1.00
O40    O     0.15195   0.85208   0.06474   0.00000  Uiso   1.00
H56    H     0.18061   0.82384   0.11485   0.00000  Uiso   1.00
C169   C     0.71208   0.71590   0.56668   0.00000  Uiso   1.00
C170   C     0.72763   0.73077   0.53330   0.00000  Uiso   1.00
C171   C     0.72763   0.73077   0.46677   0.00000  Uiso   1.00
C172   C     0.71207   0.71590   0.43338   0.00000  Uiso   1.00
C173   C     0.69690   0.70075   0.46668   0.00000  Uiso   1.00
C174   C     0.69691   0.70075   0.53340   0.00000  Uiso   1.00
C175   C     0.71227   0.71679   0.36692   0.00000  Uiso   1.00
C176   C     0.72736   0.73143   0.33543   0.00000  Uiso   1.00
C177   C     0.74225   0.74538   0.36713   0.00000  Uiso   1.00
C178   C     0.74274   0.74540   0.43183   0.00000  Uiso   1.00
C179   C     0.71229   0.71677   0.63315   0.00000  Uiso   1.00
C180   C     0.72736   0.73142   0.66464   0.00000  Uiso   1.00
C181   C     0.74224   0.74539   0.63295   0.00000  Uiso   1.00
C182   C     0.74272   0.74542   0.56824   0.00000  Uiso   1.00
C183   C     0.68162   0.68533   0.56498   0.00000  Uiso   1.00
C184   C     0.66682   0.67063   0.53263   0.00000  Uiso   1.00
C185   C     0.66682   0.67063   0.46750   0.00000  Uiso   1.00
C186   C     0.68162   0.68532   0.43512   0.00000  Uiso   1.00
H57    H     0.70105   0.70665   0.33765   0.00000  Uiso   1.00
O41    O     0.72820   0.73279   0.27112   0.00000  Uiso   1.00
O42    O     0.75648   0.75936   0.33140   0.00000  Uiso   1.00
H58    H     0.75508   0.75706   0.45247   0.00000  Uiso   1.00
H59    H     0.70109   0.70661   0.66242   0.00000  Uiso   1.00
O43    O     0.72820   0.73277   0.72896   0.00000  Uiso   1.00
O44    O     0.75647   0.75936   0.66871   0.00000  Uiso   1.00
H60    H     0.75504   0.75710   0.54759   0.00000  Uiso   1.00
H61    H     0.68063   0.68394   0.61487   0.00000  Uiso   1.00
O45    O     0.65195   0.65573   0.56478   0.00000  Uiso   1.00
O46    O     0.65194   0.65572   0.43538   0.00000  Uiso   1.00
H62    H     0.68063   0.68393   0.38523   0.00000  Uiso   1.00
C187   C     0.27252   0.73081   0.53331   0.00000  Uiso   1.00
C188   C     0.28803   0.71589   0.56671   0.00000  Uiso   1.00
C189   C     0.30321   0.70074   0.53343   0.00000  Uiso   1.00
C190   C     0.30322   0.70075   0.46671   0.00000  Uiso   1.00
C191   C     0.28805   0.71590   0.43340   0.00000  Uiso   1.00
C192   C     0.27252   0.73080   0.46679   0.00000  Uiso   1.00
C193   C     0.31850   0.68532   0.43514   0.00000  Uiso   1.00
C194   C     0.33329   0.67062   0.46752   0.00000  Uiso   1.00
C195   C     0.33329   0.67062   0.53265   0.00000  Uiso   1.00
C196   C     0.31850   0.68533   0.56501   0.00000  Uiso   1.00
C197   C     0.25745   0.74548   0.56824   0.00000  Uiso   1.00
C198   C     0.25789   0.74542   0.63294   0.00000  Uiso   1.00
C199   C     0.27273   0.73141   0.66465   0.00000  Uiso   1.00
C200   C     0.28778   0.71672   0.63318   0.00000  Uiso   1.00
C201   C     0.25743   0.74544   0.43184   0.00000  Uiso   1.00
C202   C     0.25789   0.74540   0.36713   0.00000  Uiso   1.00
C203   C     0.27276   0.73142   0.33544   0.00000  Uiso   1.00
C204   C     0.28782   0.71675   0.36694   0.00000  Uiso   1.00
H63    H     0.31952   0.68395   0.38525   0.00000  Uiso   1.00
O47    O     0.34817   0.65571   0.43539   0.00000  Uiso   1.00
O48    O     0.34817   0.65572   0.56479   0.00000  Uiso   1.00
H64    H     0.31952   0.68397   0.61490   0.00000  Uiso   1.00
H65    H     0.24518   0.75721   0.54759   0.00000  Uiso   1.00
O49    O     0.24365   0.75938   0.66868   0.00000  Uiso   1.00
O50    O     0.27189   0.73276   0.72896   0.00000  Uiso   1.00
H66    H     0.29890   0.70649   0.66247   0.00000  Uiso   1.00
H67    H     0.24511   0.75713   0.45248   0.00000  Uiso   1.00
O51    O     0.24364   0.75935   0.33138   0.00000  Uiso   1.00
O52    O     0.27191   0.73277   0.27112   0.00000  Uiso   1.00
H68    H     0.29897   0.70654   0.33766   0.00000  Uiso   1.00
C205   C     0.27242   0.27710   0.46677   0.00000  Uiso   1.00
C206   C     0.28795   0.29200   0.43337   0.00000  Uiso   1.00
C207   C     0.30311   0.30716   0.46667   0.00000  Uiso   1.00
C208   C     0.30311   0.30716   0.53339   0.00000  Uiso   1.00
C209   C     0.28795   0.29200   0.56668   0.00000  Uiso   1.00
C210   C     0.27242   0.27710   0.53329   0.00000  Uiso   1.00
C211   C     0.31839   0.32258   0.56497   0.00000  Uiso   1.00
C212   C     0.33320   0.33727   0.53263   0.00000  Uiso   1.00
C213   C     0.33320   0.33728   0.46750   0.00000  Uiso   1.00
C214   C     0.31840   0.32259   0.43511   0.00000  Uiso   1.00
C215   C     0.25734   0.26245   0.43183   0.00000  Uiso   1.00
C216   C     0.25781   0.26248   0.36712   0.00000  Uiso   1.00
C217   C     0.27270   0.27643   0.33542   0.00000  Uiso   1.00
C218   C     0.28774   0.29113   0.36691   0.00000  Uiso   1.00
C219   C     0.25735   0.26244   0.56824   0.00000  Uiso   1.00
C220   C     0.25782   0.26247   0.63295   0.00000  Uiso   1.00
C221   C     0.27270   0.27644   0.66463   0.00000  Uiso   1.00
C222   C     0.28773   0.29114   0.63315   0.00000  Uiso   1.00
H69    H     0.31940   0.32395   0.61486   0.00000  Uiso   1.00
O53    O     0.34809   0.35216   0.56480   0.00000  Uiso   1.00
O54    O     0.34810   0.35218   0.43539   0.00000  Uiso   1.00
H70    H     0.31940   0.32397   0.38522   0.00000  Uiso   1.00
H71    H     0.24504   0.25074   0.45247   0.00000  Uiso   1.00
O55    O     0.24357   0.24851   0.33138   0.00000  Uiso   1.00
O56    O     0.27191   0.27502   0.27111   0.00000  Uiso   1.00
H72    H     0.29891   0.30132   0.33763   0.00000  Uiso   1.00
H73    H     0.24506   0.25072   0.54759   0.00000  Uiso   1.00
O57    O     0.24358   0.24851   0.66871   0.00000  Uiso   1.00
O58    O     0.27191   0.27504   0.72895   0.00000  Uiso   1.00
H74    H     0.29889   0.30134   0.66243   0.00000  Uiso   1.00
C223   C     0.71218   0.29201   0.56672   0.00000  Uiso   1.00
C224   C     0.72770   0.27710   0.53332   0.00000  Uiso   1.00
C225   C     0.72770   0.27711   0.46680   0.00000  Uiso   1.00
C226   C     0.71216   0.29200   0.43341   0.00000  Uiso   1.00
C227   C     0.69701   0.30716   0.46672   0.00000  Uiso   1.00
C228   C     0.69701   0.30716   0.53343   0.00000  Uiso   1.00
C229   C     0.71236   0.29112   0.36695   0.00000  Uiso   1.00
C230   C     0.72740   0.27643   0.33545   0.00000  Uiso   1.00
C231   C     0.74231   0.26249   0.36713   0.00000  Uiso   1.00
C232   C     0.74280   0.26247   0.43184   0.00000  Uiso   1.00
C233   C     0.71240   0.29114   0.63318   0.00000  Uiso   1.00
C234   C     0.72743   0.27644   0.66466   0.00000  Uiso   1.00
C235   C     0.74231   0.26247   0.63296   0.00000  Uiso   1.00
C236   C     0.74277   0.26243   0.56825   0.00000  Uiso   1.00
C237   C     0.68172   0.32258   0.56501   0.00000  Uiso   1.00
C238   C     0.66691   0.33727   0.53264   0.00000  Uiso   1.00
C239   C     0.66692   0.33728   0.46751   0.00000  Uiso   1.00
C240   C     0.68172   0.32258   0.43515   0.00000  Uiso   1.00
H75    H     0.70117   0.30129   0.33768   0.00000  Uiso   1.00
O59    O     0.72819   0.27502   0.27113   0.00000  Uiso   1.00
O60    O     0.75655   0.24853   0.33137   0.00000  Uiso   1.00
H76    H     0.75512   0.25079   0.45247   0.00000  Uiso   1.00
H77    H     0.70125   0.30135   0.66247   0.00000  Uiso   1.00
O61    O     0.72822   0.27503   0.72897   0.00000  Uiso   1.00
O62    O     0.75653   0.24849   0.66871   0.00000  Uiso   1.00
H78    H     0.75505   0.25071   0.54759   0.00000  Uiso   1.00
H79    H     0.68071   0.32395   0.61491   0.00000  Uiso   1.00
O63    O     0.65202   0.35217   0.56477   0.00000  Uiso   1.00
O64    O     0.65203   0.35217   0.43536   0.00000  Uiso   1.00
H80    H     0.68072   0.32397   0.38526   0.00000  Uiso   1.00
Cu1    Cu    0.25005   0.25389   0.25004   0.00000  Uiso   1.00
Cu2    Cu    0.75005   0.25390   0.25004   0.00000  Uiso   1.00
Cu3    Cu    0.75006   0.75391   0.25006   0.00000  Uiso   1.00
Cu4    Cu    0.25005   0.75389   0.25004   0.00000  Uiso   1.00
Cu5    Cu    0.25005   0.75390   0.75002   0.00000  Uiso   1.00
Cu6    Cu    0.25007   0.25391   0.75004   0.00000  Uiso   1.00
Cu7    Cu    0.75006   0.25389   0.75004   0.00000  Uiso   1.00
Cu8    Cu    0.75005   0.75389   0.75005   0.00000  Uiso   1.00
Zn1    Zn    0.13798   0.14163  -0.00001   0.00000  Uiso   1.00
Zn2    Zn    0.86213   0.14163  -0.00000   0.00000  Uiso   1.00
Zn3    Zn    0.86221   0.86610  -0.00004   0.00000  Uiso   1.00
Zn4    Zn    0.13792   0.86609   0.00003   0.00000  Uiso   1.00
Zn5    Zn    0.63791   0.64172   0.50010   0.00000  Uiso   1.00
Zn6    Zn    0.36220   0.64171   0.50010   0.00000  Uiso   1.00
Zn7    Zn    0.36214   0.36617   0.50013   0.00000  Uiso   1.00
Zn8    Zn    0.63798   0.36617   0.50006   0.00000  Uiso   1.00
loop_
_geom_bond_atom_site_label_1
_geom_bond_atom_site_label_2
_geom_bond_distance
_geom_bond_site_symmetry_2
_ccdc_geom_bond_type
C1     C2      1.411   .     A
C1     C6      1.394   .     A
C1     H1      1.084   .     S
C2     C3      1.432   .     A
C2     C37     1.403   .     A
C3     C4      1.411   .     A
C3     C40     1.403   .     A
C4     C5      1.394   .     A
C4     H2      1.084   .     S
C5     C6      1.358   .     A
C5     C8      1.377   .     A
C6     C7      1.377   .     A
C7     N1      1.359   .     A
C7     N8      1.338   1_565 A
N1     C8      1.359   .     A
N1     Ni1     1.895   1_565 S
C8     N2      1.338   .     A
N2     C9      1.338   1_455 A
C9     N2      1.338   1_655 A
C9     N3      1.359   .     A
C9     C12     1.377   .     A
N3     C10     1.359   .     A
N3     Ni1     1.895   1_665 S
C10    C11     1.377   .     A
C10    N5      1.338   1_565 A
C11    C12     1.358   .     A
C11    C20     1.394   .     A
C12    C17     1.394   .     A
N4     C13     1.359   .     A
N4     C16     1.359   .     A
N4     Ni1     1.895   1_655 S
C13    N5      1.338   .     A
C13    C14     1.376   .     A
N5     C10     1.338   1_545 A
C14    C15     1.358   .     A
C14    C24     1.394   .     A
C15    C16     1.377   .     A
C15    C21     1.394   .     A
C16    N7      1.338   1_655 A
C17    C18     1.411   .     A
C17    H3      1.084   .     S
C18    C19     1.432   .     A
C18    C41     1.403   .     A
C19    C20     1.411   .     A
C19    C44     1.403   .     A
C20    H4      1.084   .     S
C21    C22     1.412   .     A
C21    H5      1.084   .     S
C22    C23     1.432   .     A
C22    C45     1.403   .     A
C23    C24     1.411   .     A
C23    C48     1.403   .     A
C24    H6      1.084   .     S
N6     C25     1.359   .     A
N6     C28     1.359   .     A
N6     Ni1     1.895   .     S
C25    N7      1.338   .     A
C25    C26     1.377   .     A
N7     C16     1.338   1_455 A
C26    C27     1.358   .     A
C26    C32     1.394   .     A
C27    C28     1.376   .     A
C27    C29     1.394   .     A
C28    N8      1.338   .     A
C29    C30     1.411   .     A
C29    H7      1.084   .     S
C30    C31     1.432   .     A
C30    C33     1.403   .     A
C31    C32     1.412   .     A
C31    C36     1.403   .     A
C32    H8      1.084   .     S
N8     C7      1.338   1_545 A
C33    C34     1.397   .     A
C33    H9      1.084   .     S
C34    C35     1.412   .     A
C34    O1      1.395   .     S
C35    C36     1.397   .     A
C35    O2      1.395   .     S
C36    H10     1.084   .     S
C37    C38     1.397   .     A
C37    H11     1.084   .     S
C38    C39     1.412   .     A
C38    O3      1.395   .     S
C39    C40     1.397   .     A
C39    O4      1.395   .     S
C40    H12     1.084   .     S
C41    C42     1.397   .     A
C41    H13     1.084   .     S
C42    C43     1.412   .     A
C42    O5      1.395   .     S
C43    C44     1.397   .     A
C43    O6      1.395   .     S
C44    H14     1.084   .     S
C45    C46     1.397   .     A
C45    H15     1.084   .     S
C46    C47     1.412   .     A
C46    O7      1.395   .     S
C47    C48     1.397   .     A
C47    O8      1.395   .     S
C48    H16     1.084   .     S
O1     Zn1     1.800   .     S
O2     Zn1     1.800   .     S
O3     Zn4     1.800   .     S
O4     Zn4     1.800   .     S
O5     Zn3     1.800   .     S
O6     Zn3     1.800   .     S
O7     Zn2     1.800   .     S
O8     Zn2     1.800   .     S
Ni1    N4      1.895   1_455 S
Ni1    N1      1.895   1_545 S
Ni1    N3      1.895   1_445 S
C49    C50     1.411   .     A
C49    C54     1.394   .     A
C49    H17     1.084   .     S
C50    C51     1.432   .     A
C50    C85     1.403   .     A
C51    C52     1.411   .     A
C51    C88     1.403   .     A
C52    C53     1.394   .     A
C52    H18     1.084   .     S
C53    C54     1.358   .     A
C53    C56     1.377   .     A
C54    C55     1.377   .     A
C55    N9      1.359   .     A
C55    N16     1.338   .     A
N9     C56     1.359   .     A
N9     Ni2     1.895   .     S
C56    N10     1.338   .     A
N10    C57     1.338   .     A
C57    N11     1.359   .     A
C57    C60     1.377   .     A
N11    C58     1.359   .     A
N11    Ni2     1.895   .     S
C58    C59     1.377   .     A
C58    N13     1.338   .     A
C59    C60     1.358   .     A
C59    C68     1.394   .     A
C60    C65     1.394   .     A
N12    C61     1.359   .     A
N12    C64     1.359   .     A
N12    Ni2     1.895   .     S
C61    N13     1.338   .     A
C61    C62     1.377   .     A
C62    C63     1.358   .     A
C62    C72     1.394   .     A
C63    C64     1.377   .     A
C63    C69     1.394   .     A
C64    N15     1.338   .     A
C65    C66     1.411   .     A
C65    H19     1.084   .     S
C66    C67     1.432   .     A
C66    C89     1.403   .     A
C67    C68     1.411   .     A
C67    C92     1.403   .     A
C68    H20     1.084   .     S
C69    C70     1.412   .     A
C69    H21     1.084   .     S
C70    C71     1.432   .     A
C70    C93     1.403   .     A
C71    C72     1.411   .     A
C71    C96     1.403   .     A
C72    H22     1.084   .     S
N14    C73     1.359   .     A
N14    C76     1.359   .     A
N14    Ni2     1.895   .     S
C73    N15     1.338   .     A
C73    C74     1.377   .     A
C74    C75     1.358   .     A
C74    C80     1.394   .     A
C75    C76     1.377   .     A
C75    C77     1.394   .     A
C76    N16     1.338   .     A
C77    C78     1.411   .     A
C77    H23     1.084   .     S
C78    C79     1.432   .     A
C78    C81     1.403   .     A
C79    C80     1.412   .     A
C79    C84     1.403   .     A
C80    H24     1.084   .     S
C81    C82     1.397   .     A
C81    H25     1.084   .     S
C82    C83     1.412   .     A
C82    O9      1.395   .     S
C83    C84     1.397   .     A
C83    O10     1.395   .     S
C84    H26     1.084   .     S
C85    C86     1.397   .     A
C85    H27     1.084   .     S
C86    C87     1.412   .     A
C86    O11     1.395   .     S
C87    C88     1.397   .     A
C87    O12     1.395   .     S
C88    H28     1.084   .     S
C89    C90     1.397   .     A
C89    H29     1.084   .     S
C90    C91     1.412   .     A
C90    O13     1.395   .     S
C91    C92     1.397   .     A
C91    O14     1.395   .     S
C92    H30     1.084   .     S
C93    C94     1.397   .     A
C93    H31     1.084   .     S
C94    C95     1.412   .     A
C94    O15     1.395   .     S
C95    C96     1.397   .     A
C95    O16     1.395   .     S
C96    H32     1.084   .     S
O9     Zn7     1.800   .     S
O10    Zn7     1.800   .     S
O11    Zn6     1.800   .     S
O12    Zn6     1.800   .     S
O13    Zn5     1.800   .     S
O14    Zn5     1.800   .     S
O15    Zn8     1.800   .     S
O16    Zn8     1.800   .     S
C97    C98     1.433   .     A
C97    C102    1.428   .     A
C97    C107    1.426   .     A
C98    C99     1.426   1_554 A
C98    C110    1.426   .     A
C99    C98     1.426   1_556 A
C99    C100    1.433   .     A
C99    C106    1.426   .     A
C100   C101    1.428   .     A
C100   C103    1.426   .     A
C101   C102    1.430   1_556 A
C101   C114    1.424   .     A
C102   C101    1.430   1_554 A
C102   C111    1.424   .     A
C103   C104    1.388   .     A
C103   H33     1.074   .     S
C104   C105    1.359   .     A
C104   O17     1.382   .     S
C105   C106    1.388   .     A
C105   O18     1.382   .     S
C106   H34     1.075   .     S
C107   C108    1.388   .     A
C107   H35     1.074   .     S
C108   C109    1.359   .     A
C108   O19     1.382   .     S
C109   C110    1.388   .     A
C109   O20     1.382   .     S
C110   H36     1.075   .     S
C111   C112    1.389   .     A
C111   H37     1.074   .     S
C112   C113    1.397   1_554 A
C112   O21     1.396   .     S
C113   C112    1.397   1_556 A
C113   C114    1.389   .     A
C113   O22     1.396   .     S
C114   H38     1.074   .     S
O17    Cu6     1.810   .     S
O18    Cu6     1.811   .     S
O19    Cu1     1.810   .     S
O20    Cu1     1.810   .     S
O21    Zn1     1.798   .     S
O22    Zn1     1.798   1_556 S
C115   C116    1.433   .     A
C115   C120    1.426   1_554 A
C115   C125    1.426   .     A
C116   C117    1.428   .     A
C116   C128    1.426   .     A
C117   C118    1.431   1_554 A
C117   C124    1.424   .     A
C118   C117    1.431   1_556 A
C118   C119    1.428   .     A
C118   C121    1.424   .     A
C119   C120    1.433   .     A
C119   C132    1.426   .     A
C120   C115    1.426   1_556 A
C120   C129    1.426   .     A
C121   C122    1.389   .     A
C121   H39     1.074   .     S
C122   C123    1.397   1_556 A
C122   O23     1.396   .     S
C123   C122    1.397   1_554 A
C123   C124    1.389   .     A
C123   O24     1.396   .     S
C124   H40     1.074   .     S
C125   C126    1.388   .     A
C125   H41     1.075   .     S
C126   C127    1.359   .     A
C126   O25     1.382   .     S
C127   C128    1.388   .     A
C127   O26     1.382   .     S
C128   H42     1.074   .     S
C129   C130    1.388   .     A
C129   H43     1.075   .     S
C130   C131    1.359   .     A
C130   O27     1.382   .     S
C131   C132    1.388   .     A
C131   O28     1.382   .     S
C132   H44     1.074   .     S
O23    Zn2     1.798   1_556 S
O24    Zn2     1.798   .     S
O25    Cu2     1.811   .     S
O26    Cu2     1.810   .     S
O27    Cu7     1.810   .     S
O28    Cu7     1.810   .     S
C133   C134    1.433   .     A
C133   C138    1.426   1_556 A
C133   C143    1.426   .     A
C134   C135    1.428   .     A
C134   C146    1.426   .     A
C135   C136    1.430   1_556 A
C135   C142    1.424   .     A
C136   C135    1.430   1_554 A
C136   C137    1.428   .     A
C136   C139    1.424   .     A
C137   C138    1.433   .     A
C137   C150    1.426   .     A
C138   C133    1.426   1_554 A
C138   C147    1.426   .     A
C139   C140    1.389   .     A
C139   H45     1.074   .     S
C140   C141    1.396   1_554 A
C140   O29     1.396   .     S
C141   C140    1.396   1_556 A
C141   C142    1.389   .     A
C141   O30     1.396   .     S
C142   H46     1.074   .     S
C143   C144    1.388   .     A
C143   H47     1.075   .     S
C144   C145    1.359   .     A
C144   O31     1.382   .     S
C145   C146    1.388   .     A
C145   O32     1.382   .     S
C146   H48     1.074   .     S
C147   C148    1.388   .     A
C147   H49     1.074   .     S
C148   C149    1.359   .     A
C148   O33     1.382   .     S
C149   C150    1.388   .     A
C149   O34     1.382   .     S
C150   H50     1.074   .     S
O29    Zn3     1.798   .     S
O30    Zn3     1.798   1_556 S
O31    Cu8     1.811   .     S
O32    Cu8     1.810   .     S
O33    Cu3     1.810   .     S
O34    Cu3     1.810   .     S
C151   C152    1.433   .     A
C151   C156    1.428   .     A
C151   C161    1.426   .     A
C152   C153    1.426   1_556 A
C152   C164    1.426   .     A
C153   C152    1.426   1_554 A
C153   C154    1.433   .     A
C153   C160    1.426   .     A
C154   C155    1.428   .     A
C154   C157    1.426   .     A
C155   C156    1.430   1_554 A
C155   C168    1.424   .     A
C156   C155    1.430   1_556 A
C156   C165    1.424   .     A
C157   C158    1.388   .     A
C157   H51     1.074   .     S
C158   C159    1.359   .     A
C158   O35     1.382   .     S
C159   C160    1.388   .     A
C159   O36     1.382   .     S
C160   H52     1.075   .     S
C161   C162    1.388   .     A
C161   H53     1.074   .     S
C162   C163    1.359   .     A
C162   O37     1.382   .     S
C163   C164    1.388   .     A
C163   O38     1.382   .     S
C164   H54     1.075   .     S
C165   C166    1.389   .     A
C165   H55     1.074   .     S
C166   C167    1.396   1_556 A
C166   O39     1.396   .     S
C167   C166    1.396   1_554 A
C167   C168    1.389   .     A
C167   O40     1.396   .     S
C168   H56     1.074   .     S
O35    Cu4     1.810   .     S
O36    Cu4     1.811   .     S
O37    Cu5     1.810   .     S
O38    Cu5     1.810   .     S
O39    Zn4     1.798   1_556 S
O40    Zn4     1.798   .     S
C169   C170    1.433   .     A
C169   C174    1.428   .     A
C169   C179    1.426   .     A
C170   C171    1.426   .     A
C170   C182    1.426   .     A
C171   C172    1.433   .     A
C171   C178    1.426   .     A
C172   C173    1.428   .     A
C172   C175    1.426   .     A
C173   C174    1.431   .     A
C173   C186    1.424   .     A
C174   C183    1.424   .     A
C175   C176    1.388   .     A
C175   H57     1.074   .     S
C176   C177    1.359   .     A
C176   O41     1.382   .     S
C177   C178    1.388   .     A
C177   O42     1.382   .     S
C178   H58     1.075   .     S
C179   C180    1.388   .     A
C179   H59     1.074   .     S
C180   C181    1.359   .     A
C180   O43     1.382   .     S
C181   C182    1.388   .     A
C181   O44     1.382   .     S
C182   H60     1.075   .     S
C183   C184    1.389   .     A
C183   H61     1.074   .     S
C184   C185    1.396   .     A
C184   O45     1.396   .     S
C185   C186    1.389   .     A
C185   O46     1.396   .     S
C186   H62     1.074   .     S
O41    Cu3     1.810   .     S
O42    Cu3     1.810   .     S
O43    Cu8     1.810   .     S
O44    Cu8     1.811   .     S
O45    Zn5     1.798   .     S
O46    Zn5     1.798   .     S
C187   C188    1.433   .     A
C187   C192    1.426   .     A
C187   C197    1.426   .     A
C188   C189    1.428   .     A
C188   C200    1.426   .     A
C189   C190    1.431   .     A
C189   C196    1.424   .     A
C190   C191    1.428   .     A
C190   C193    1.424   .     A
C191   C192    1.433   .     A
C191   C204    1.426   .     A
C192   C201    1.426   .     A
C193   C194    1.389   .     A
C193   H63     1.074   .     S
C194   C195    1.397   .     A
C194   O47     1.396   .     S
C195   C196    1.389   .     A
C195   O48     1.396   .     S
C196   H64     1.074   .     S
C197   C198    1.388   .     A
C197   H65     1.075   .     S
C198   C199    1.359   .     A
C198   O49     1.382   .     S
C199   C200    1.388   .     A
C199   O50     1.382   .     S
C200   H66     1.074   .     S
C201   C202    1.388   .     A
C201   H67     1.074   .     S
C202   C203    1.359   .     A
C202   O51     1.382   .     S
C203   C204    1.388   .     A
C203   O52     1.382   .     S
C204   H68     1.074   .     S
O47    Zn6     1.798   .     S
O48    Zn6     1.798   .     S
O49    Cu5     1.810   .     S
O50    Cu5     1.810   .     S
O51    Cu4     1.810   .     S
O52    Cu4     1.811   .     S
C205   C206    1.433   .     A
C205   C210    1.426   .     A
C205   C215    1.426   .     A
C206   C207    1.428   .     A
C206   C218    1.426   .     A
C207   C208    1.430   .     A
C207   C214    1.424   .     A
C208   C209    1.428   .     A
C208   C211    1.424   .     A
C209   C210    1.433   .     A
C209   C222    1.426   .     A
C210   C219    1.426   .     A
C211   C212    1.389   .     A
C211   H69     1.074   .     S
C212   C213    1.396   .     A
C212   O53     1.396   .     S
C213   C214    1.389   .     A
C213   O54     1.396   .     S
C214   H70     1.074   .     S
C215   C216    1.388   .     A
C215   H71     1.075   .     S
C216   C217    1.359   .     A
C216   O55     1.382   .     S
C217   C218    1.388   .     A
C217   O56     1.382   .     S
C218   H72     1.074   .     S
C219   C220    1.388   .     A
C219   H73     1.075   .     S
C220   C221    1.359   .     A
C220   O57     1.382   .     S
C221   C222    1.388   .     A
C221   O58     1.382   .     S
C222   H74     1.074   .     S
O53    Zn7     1.798   .     S
O54    Zn7     1.798   .     S
O55    Cu1     1.810   .     S
O56    Cu1     1.811   .     S
O57    Cu6     1.811   .     S
O58    Cu6     1.810   .     S
C223   C224    1.433   .     A
C223   C228    1.428   .     A
C223   C233    1.426   .     A
C224   C225    1.426   .     A
C224   C236    1.426   .     A
C225   C226    1.433   .     A
C225   C232    1.426   .     A
C226   C227    1.428   .     A
C226   C229    1.426   .     A
C227   C228    1.430   .     A
C227   C240    1.424   .     A
C228   C237    1.424   .     A
C229   C230    1.388   .     A
C229   H75     1.074   .     S
C230   C231    1.359   .     A
C230   O59     1.382   .     S
C231   C232    1.388   .     A
C231   O60     1.382   .     S
C232   H76     1.075   .     S
C233   C234    1.388   .     A
C233   H77     1.074   .     S
C234   C235    1.359   .     A
C234   O61     1.382   .     S
C235   C236    1.388   .     A
C235   O62     1.382   .     S
C236   H78     1.075   .     S
C237   C238    1.389   .     A
C237   H79     1.074   .     S
C238   C239    1.396   .     A
C238   O63     1.396   .     S
C239   C240    1.389   .     A
C239   O64     1.396   .     S
C240   H80     1.074   .     S
O59    Cu2     1.811   .     S
O60    Cu2     1.810   .     S
O61    Cu7     1.810   .     S
O62    Cu7     1.810   .     S
O63    Zn8     1.798   .     S
O64    Zn8     1.798   .     S
Zn1    O22     1.798   1_554 S
Zn2    O23     1.798   1_554 S
Zn3    O30     1.798   1_554 S
Zn4    O39     1.798   1_554 S
