data_lig-spacer-TP_O-Feoct
_audit_creation_date              2021-11-06
_audit_creation_method            'Materials Studio'
_symmetry_space_group_name_H-M    'P1'
_symmetry_Int_Tables_number       1
_symmetry_cell_setting            triclinic
loop_
_symmetry_equiv_pos_as_xyz
  x,y,z
_cell_length_a                    52.3459
_cell_length_b                    44.7079
_cell_length_c                    37.0128
_cell_angle_alpha                 90.0056
_cell_angle_beta                  90.0062
_cell_angle_gamma                 90.0069
loop_
_atom_site_label
_atom_site_type_symbol
_atom_site_fract_x
_atom_site_fract_y
_atom_site_fract_z
_atom_site_U_iso_or_equiv
_atom_site_adp_type
_atom_site_occupancy
C1     C     0.14178   0.01042   0.98553   0.00000  Uiso   1.00
C2     C     0.11821   0.02237   0.97240   0.00000  Uiso   1.00
C3     C     0.09460   0.01135   0.98630   0.00000  Uiso   1.00
C4     C     0.09459   0.98881   0.01387   0.00000  Uiso   1.00
C5     C     0.11820   0.97778   0.02779   0.00000  Uiso   1.00
C6     C     0.14177   0.98979   0.01474   0.00000  Uiso   1.00
C7     C     0.07066   0.97853   0.02729   0.00000  Uiso   1.00
C8     C     0.04790   0.98962   0.01343   0.00000  Uiso   1.00
C9     C     0.04791   0.01059   0.98678   0.00000  Uiso   1.00
C10    C     0.07066   0.02166   0.97291   0.00000  Uiso   1.00
C11    C     0.16487   0.01910   0.96819   0.00000  Uiso   1.00
C12    C     0.16467   0.04042   0.94096   0.00000  Uiso   1.00
C13    C     0.14248   0.05369   0.93045   0.00000  Uiso   1.00
C14    C     0.11924   0.04506   0.94539   0.00000  Uiso   1.00
C15    C     0.16484   0.98115   0.03215   0.00000  Uiso   1.00
C16    C     0.16463   0.95979   0.05934   0.00000  Uiso   1.00
C17    C     0.14245   0.94643   0.06972   0.00000  Uiso   1.00
C18    C     0.11922   0.95502   0.05471   0.00000  Uiso   1.00
H1     H     0.06876   0.96232   0.04858   0.00000  Uiso   1.00
O1     O     0.02423   0.98026   0.02549   0.00000  Uiso   1.00
O2     O     0.02423   0.01999   0.97476   0.00000  Uiso   1.00
H2     H     0.06876   0.03791   0.95165   0.00000  Uiso   1.00
H3     H     0.18312   0.00919   0.97431   0.00000  Uiso   1.00
O3     O     0.18654   0.04939   0.92312   0.00000  Uiso   1.00
O4     O     0.14452   0.07526   0.90383   0.00000  Uiso   1.00
H4     H     0.10268   0.05652   0.93520   0.00000  Uiso   1.00
H5     H     0.18309   0.99112   0.02612   0.00000  Uiso   1.00
O5     O     0.18649   0.95084   0.07723   0.00000  Uiso   1.00
O6     O     0.14448   0.92481   0.09629   0.00000  Uiso   1.00
H6     H     0.10266   0.94347   0.06476   0.00000  Uiso   1.00
Fe1    Fe    0.25001   0.83518   0.25003   0.00000  Uiso   1.00
C19    C     0.35820   0.98973   0.48547   0.00000  Uiso   1.00
C20    C     0.38177   0.97775   0.47238   0.00000  Uiso   1.00
C21    C     0.40538   0.98878   0.48627   0.00000  Uiso   1.00
C22    C     0.40540   0.01135   0.51382   0.00000  Uiso   1.00
C23    C     0.38180   0.02238   0.52772   0.00000  Uiso   1.00
C24    C     0.35822   0.01040   0.51466   0.00000  Uiso   1.00
C25    C     0.42934   0.02164   0.52721   0.00000  Uiso   1.00
C26    C     0.45209   0.01054   0.51334   0.00000  Uiso   1.00
C27    C     0.45208   0.98956   0.48671   0.00000  Uiso   1.00
C28    C     0.42932   0.97848   0.47286   0.00000  Uiso   1.00
C29    C     0.33512   0.98103   0.46814   0.00000  Uiso   1.00
C30    C     0.33531   0.95967   0.44095   0.00000  Uiso   1.00
C31    C     0.35751   0.94637   0.43049   0.00000  Uiso   1.00
C32    C     0.38074   0.95501   0.44543   0.00000  Uiso   1.00
C33    C     0.33515   0.01908   0.53203   0.00000  Uiso   1.00
C34    C     0.33537   0.04043   0.55924   0.00000  Uiso   1.00
C35    C     0.35757   0.05375   0.56965   0.00000  Uiso   1.00
C36    C     0.38079   0.04513   0.55466   0.00000  Uiso   1.00
H7     H     0.43126   0.03788   0.54847   0.00000  Uiso   1.00
O7     O     0.47577   0.01993   0.52537   0.00000  Uiso   1.00
O8     O     0.47575   0.98015   0.47468   0.00000  Uiso   1.00
H8     H     0.43121   0.96223   0.45161   0.00000  Uiso   1.00
H9     H     0.31686   0.99095   0.47423   0.00000  Uiso   1.00
O9     O     0.31345   0.95067   0.42311   0.00000  Uiso   1.00
O10    O     0.35546   0.92474   0.40393   0.00000  Uiso   1.00
H10    H     0.39730   0.94351   0.43530   0.00000  Uiso   1.00
H11    H     0.31689   0.00914   0.52597   0.00000  Uiso   1.00
O11    O     0.31353   0.04939   0.57714   0.00000  Uiso   1.00
O12    O     0.35555   0.07535   0.59625   0.00000  Uiso   1.00
H12    H     0.39736   0.05665   0.56475   0.00000  Uiso   1.00
Fe2    Fe    0.25013   0.16487   0.75020   0.00000  Uiso   1.00
C37    C     0.85822   0.98969   0.01463   0.00000  Uiso   1.00
C38    C     0.88181   0.97776   0.02775   0.00000  Uiso   1.00
C39    C     0.90541   0.98880   0.01387   0.00000  Uiso   1.00
C40    C     0.90541   0.01135   0.98630   0.00000  Uiso   1.00
C41    C     0.88180   0.02235   0.97237   0.00000  Uiso   1.00
C42    C     0.85823   0.01035   0.98543   0.00000  Uiso   1.00
C43    C     0.92934   0.02166   0.97292   0.00000  Uiso   1.00
C44    C     0.95210   0.01060   0.98681   0.00000  Uiso   1.00
C45    C     0.95211   0.98963   0.01344   0.00000  Uiso   1.00
C46    C     0.92935   0.97853   0.02729   0.00000  Uiso   1.00
C47    C     0.83515   0.98099   0.03196   0.00000  Uiso   1.00
C48    C     0.83536   0.95966   0.05919   0.00000  Uiso   1.00
C49    C     0.85756   0.94639   0.06967   0.00000  Uiso   1.00
C50    C     0.88078   0.95503   0.05472   0.00000  Uiso   1.00
C51    C     0.83515   0.01900   0.96805   0.00000  Uiso   1.00
C52    C     0.83536   0.04036   0.94085   0.00000  Uiso   1.00
C53    C     0.85755   0.05369   0.93043   0.00000  Uiso   1.00
C54    C     0.88078   0.04509   0.94542   0.00000  Uiso   1.00
H13    H     0.93125   0.03788   0.95163   0.00000  Uiso   1.00
O13    O     0.97578   0.02000   0.97478   0.00000  Uiso   1.00
O14    O     0.97578   0.98026   0.02550   0.00000  Uiso   1.00
H14    H     0.93126   0.96231   0.04858   0.00000  Uiso   1.00
H15    H     0.81688   0.99088   0.02585   0.00000  Uiso   1.00
O15    O     0.81350   0.95067   0.07703   0.00000  Uiso   1.00
O16    O     0.85552   0.92479   0.09627   0.00000  Uiso   1.00
H16    H     0.89736   0.94356   0.06487   0.00000  Uiso   1.00
H17    H     0.81690   0.00905   0.97410   0.00000  Uiso   1.00
O17    O     0.81350   0.04932   0.92298   0.00000  Uiso   1.00
O18    O     0.85551   0.07530   0.90385   0.00000  Uiso   1.00
H18    H     0.89734   0.05660   0.93533   0.00000  Uiso   1.00
Fe3    Fe    0.75000   0.16487   0.75005   0.00000  Uiso   1.00
C55    C     0.64176   0.01036   0.51459   0.00000  Uiso   1.00
C56    C     0.61819   0.02236   0.52766   0.00000  Uiso   1.00
C57    C     0.59458   0.01132   0.51378   0.00000  Uiso   1.00
C58    C     0.59457   0.98875   0.48623   0.00000  Uiso   1.00
C59    C     0.61818   0.97772   0.47232   0.00000  Uiso   1.00
C60    C     0.64175   0.98969   0.48540   0.00000  Uiso   1.00
C61    C     0.57063   0.97843   0.47285   0.00000  Uiso   1.00
C62    C     0.54788   0.98952   0.48672   0.00000  Uiso   1.00
C63    C     0.54789   0.01053   0.51332   0.00000  Uiso   1.00
C64    C     0.57065   0.02162   0.52718   0.00000  Uiso   1.00
C65    C     0.66484   0.01904   0.53195   0.00000  Uiso   1.00
C66    C     0.66464   0.04041   0.55914   0.00000  Uiso   1.00
C67    C     0.64245   0.05374   0.56956   0.00000  Uiso   1.00
C68    C     0.61922   0.04513   0.55459   0.00000  Uiso   1.00
C69    C     0.66483   0.98101   0.46805   0.00000  Uiso   1.00
C70    C     0.66461   0.95967   0.44083   0.00000  Uiso   1.00
C71    C     0.64242   0.94637   0.43038   0.00000  Uiso   1.00
C72    C     0.61919   0.95499   0.44535   0.00000  Uiso   1.00
H19    H     0.56873   0.96219   0.45160   0.00000  Uiso   1.00
O19    O     0.52421   0.98013   0.47469   0.00000  Uiso   1.00
O20    O     0.52422   0.01991   0.52537   0.00000  Uiso   1.00
H20    H     0.56875   0.03785   0.54846   0.00000  Uiso   1.00
H21    H     0.68309   0.00909   0.52589   0.00000  Uiso   1.00
O21    O     0.68650   0.04939   0.57701   0.00000  Uiso   1.00
O22    O     0.64449   0.07537   0.59612   0.00000  Uiso   1.00
H22    H     0.60266   0.05666   0.56467   0.00000  Uiso   1.00
H23    H     0.68308   0.99094   0.47413   0.00000  Uiso   1.00
O23    O     0.68647   0.95069   0.42296   0.00000  Uiso   1.00
O24    O     0.64445   0.92477   0.40378   0.00000  Uiso   1.00
H24    H     0.60263   0.94349   0.43522   0.00000  Uiso   1.00
Fe4    Fe    0.75000   0.83519   0.25002   0.00000  Uiso   1.00
C73    C     0.64175   0.51042   0.48544   0.00000  Uiso   1.00
C74    C     0.61817   0.52238   0.47235   0.00000  Uiso   1.00
C75    C     0.59457   0.51136   0.48627   0.00000  Uiso   1.00
C76    C     0.59458   0.48884   0.51386   0.00000  Uiso   1.00
C77    C     0.61819   0.47781   0.52774   0.00000  Uiso   1.00
C78    C     0.64176   0.48977   0.51464   0.00000  Uiso   1.00
C79    C     0.57064   0.47857   0.52731   0.00000  Uiso   1.00
C80    C     0.54788   0.48962   0.51342   0.00000  Uiso   1.00
C81    C     0.54788   0.51055   0.48673   0.00000  Uiso   1.00
C82    C     0.57063   0.52163   0.47285   0.00000  Uiso   1.00
C83    C     0.66482   0.51908   0.46806   0.00000  Uiso   1.00
C84    C     0.66461   0.54040   0.44082   0.00000  Uiso   1.00
C85    C     0.64242   0.55370   0.43037   0.00000  Uiso   1.00
C86    C     0.61919   0.54510   0.44537   0.00000  Uiso   1.00
C87    C     0.66484   0.48109   0.53197   0.00000  Uiso   1.00
C88    C     0.66464   0.45972   0.55916   0.00000  Uiso   1.00
C89    C     0.64245   0.44641   0.56960   0.00000  Uiso   1.00
C90    C     0.61922   0.45505   0.55467   0.00000  Uiso   1.00
H25    H     0.56875   0.46238   0.54862   0.00000  Uiso   1.00
O25    O     0.52421   0.48024   0.52546   0.00000  Uiso   1.00
O26    O     0.52420   0.51989   0.47465   0.00000  Uiso   1.00
H26    H     0.56872   0.53783   0.45155   0.00000  Uiso   1.00
H27    H     0.68308   0.50916   0.47413   0.00000  Uiso   1.00
O27    O     0.68646   0.54934   0.42293   0.00000  Uiso   1.00
O28    O     0.64445   0.57527   0.40374   0.00000  Uiso   1.00
H28    H     0.60263   0.55660   0.43526   0.00000  Uiso   1.00
H29    H     0.68310   0.49101   0.52588   0.00000  Uiso   1.00
O29    O     0.68651   0.45071   0.57698   0.00000  Uiso   1.00
O30    O     0.64449   0.42477   0.59614   0.00000  Uiso   1.00
H30    H     0.60265   0.44354   0.56478   0.00000  Uiso   1.00
Fe5    Fe    0.74999   0.33519   0.74994   0.00000  Uiso   1.00
C91    C     0.85821   0.48966   0.98546   0.00000  Uiso   1.00
C92    C     0.88178   0.47766   0.97240   0.00000  Uiso   1.00
C93    C     0.90539   0.48868   0.98629   0.00000  Uiso   1.00
C94    C     0.90541   0.51126   0.01384   0.00000  Uiso   1.00
C95    C     0.88180   0.52230   0.02774   0.00000  Uiso   1.00
C96    C     0.85822   0.51034   0.01465   0.00000  Uiso   1.00
C97    C     0.92935   0.52156   0.02721   0.00000  Uiso   1.00
C98    C     0.95210   0.51045   0.01335   0.00000  Uiso   1.00
C99    C     0.95209   0.48945   0.98675   0.00000  Uiso   1.00
C100   C     0.92932   0.47836   0.97290   0.00000  Uiso   1.00
C101   C     0.83514   0.48099   0.96810   0.00000  Uiso   1.00
C102   C     0.83533   0.45962   0.94090   0.00000  Uiso   1.00
C103   C     0.85752   0.44628   0.93049   0.00000  Uiso   1.00
C104   C     0.88075   0.45489   0.94547   0.00000  Uiso   1.00
C105   C     0.83515   0.51904   0.03200   0.00000  Uiso   1.00
C106   C     0.83537   0.54039   0.05921   0.00000  Uiso   1.00
C107   C     0.85757   0.55368   0.06966   0.00000  Uiso   1.00
C108   C     0.88079   0.54504   0.05470   0.00000  Uiso   1.00
H31    H     0.93127   0.53783   0.04844   0.00000  Uiso   1.00
O31    O     0.97578   0.51984   0.02537   0.00000  Uiso   1.00
O32    O     0.97576   0.48004   0.97471   0.00000  Uiso   1.00
H32    H     0.93122   0.46211   0.95164   0.00000  Uiso   1.00
H33    H     0.81689   0.49094   0.97416   0.00000  Uiso   1.00
O33    O     0.81347   0.45065   0.92303   0.00000  Uiso   1.00
O34    O     0.85548   0.42466   0.90392   0.00000  Uiso   1.00
H34    H     0.89731   0.44336   0.93539   0.00000  Uiso   1.00
H35    H     0.81689   0.50913   0.02591   0.00000  Uiso   1.00
O35    O     0.81352   0.54938   0.07707   0.00000  Uiso   1.00
O36    O     0.85555   0.57528   0.09626   0.00000  Uiso   1.00
H36    H     0.89737   0.55653   0.06482   0.00000  Uiso   1.00
Fe6    Fe    0.75003   0.66488   0.25005   0.00000  Uiso   1.00
C109   C     0.35821   0.48971   0.51462   0.00000  Uiso   1.00
C110   C     0.38178   0.47767   0.52763   0.00000  Uiso   1.00
C111   C     0.40539   0.48868   0.51372   0.00000  Uiso   1.00
C112   C     0.40539   0.51120   0.48612   0.00000  Uiso   1.00
C113   C     0.38179   0.52224   0.47223   0.00000  Uiso   1.00
C114   C     0.35821   0.51035   0.48541   0.00000  Uiso   1.00
C115   C     0.42933   0.52148   0.47271   0.00000  Uiso   1.00
C116   C     0.45209   0.51042   0.48661   0.00000  Uiso   1.00
C117   C     0.45209   0.48948   0.51329   0.00000  Uiso   1.00
C118   C     0.42933   0.47841   0.52716   0.00000  Uiso   1.00
C119   C     0.33514   0.48109   0.53203   0.00000  Uiso   1.00
C120   C     0.33533   0.45970   0.55918   0.00000  Uiso   1.00
C121   C     0.35751   0.44631   0.56954   0.00000  Uiso   1.00
C122   C     0.38074   0.45489   0.55452   0.00000  Uiso   1.00
C123   C     0.33512   0.51908   0.46811   0.00000  Uiso   1.00
C124   C     0.33534   0.54037   0.44083   0.00000  Uiso   1.00
C125   C     0.35754   0.55358   0.43028   0.00000  Uiso   1.00
C126   C     0.38077   0.54491   0.44520   0.00000  Uiso   1.00
H37    H     0.43124   0.53768   0.45141   0.00000  Uiso   1.00
O37    O     0.47575   0.51981   0.47457   0.00000  Uiso   1.00
O38    O     0.47576   0.48014   0.52537   0.00000  Uiso   1.00
H38    H     0.43122   0.46225   0.54852   0.00000  Uiso   1.00
H39    H     0.31690   0.49109   0.52602   0.00000  Uiso   1.00
O39    O     0.31347   0.45073   0.57705   0.00000  Uiso   1.00
O40    O     0.35546   0.42465   0.59606   0.00000  Uiso   1.00
H40    H     0.39729   0.44328   0.56451   0.00000  Uiso   1.00
H41    H     0.31684   0.50924   0.47426   0.00000  Uiso   1.00
O41    O     0.31348   0.54935   0.42297   0.00000  Uiso   1.00
O42    O     0.35553   0.57512   0.40362   0.00000  Uiso   1.00
H42    H     0.39735   0.55632   0.43498   0.00000  Uiso   1.00
Fe7    Fe    0.25002   0.66486   0.24995   0.00000  Uiso   1.00
C127   C     0.14176   0.51030   0.01462   0.00000  Uiso   1.00
C128   C     0.11819   0.52231   0.02766   0.00000  Uiso   1.00
C129   C     0.09459   0.51127   0.01376   0.00000  Uiso   1.00
C130   C     0.09458   0.48869   0.98623   0.00000  Uiso   1.00
C131   C     0.11819   0.47766   0.97233   0.00000  Uiso   1.00
C132   C     0.14176   0.48963   0.98543   0.00000  Uiso   1.00
C133   C     0.07064   0.47837   0.97285   0.00000  Uiso   1.00
C134   C     0.04789   0.48945   0.98671   0.00000  Uiso   1.00
C135   C     0.04789   0.51046   0.01331   0.00000  Uiso   1.00
C136   C     0.07065   0.52157   0.02716   0.00000  Uiso   1.00
C137   C     0.16483   0.51896   0.03200   0.00000  Uiso   1.00
C138   C     0.16463   0.54034   0.05918   0.00000  Uiso   1.00
C139   C     0.14244   0.55369   0.06957   0.00000  Uiso   1.00
C140   C     0.11922   0.54508   0.05458   0.00000  Uiso   1.00
C141   C     0.16484   0.48094   0.96809   0.00000  Uiso   1.00
C142   C     0.16463   0.45961   0.94086   0.00000  Uiso   1.00
C143   C     0.14244   0.44632   0.93039   0.00000  Uiso   1.00
C144   C     0.11921   0.45493   0.94536   0.00000  Uiso   1.00
H43    H     0.06874   0.46211   0.95161   0.00000  Uiso   1.00
O43    O     0.02421   0.48004   0.97470   0.00000  Uiso   1.00
O44    O     0.02422   0.51985   0.02536   0.00000  Uiso   1.00
H44    H     0.06875   0.53780   0.04843   0.00000  Uiso   1.00
H45    H     0.18308   0.50900   0.02596   0.00000  Uiso   1.00
O45    O     0.18649   0.54932   0.07704   0.00000  Uiso   1.00
O46    O     0.14448   0.57532   0.09612   0.00000  Uiso   1.00
H46    H     0.10266   0.55663   0.06464   0.00000  Uiso   1.00
H47    H     0.18311   0.49085   0.97418   0.00000  Uiso   1.00
O47    O     0.18649   0.45066   0.92298   0.00000  Uiso   1.00
O48    O     0.14447   0.42474   0.90377   0.00000  Uiso   1.00
H48    H     0.10264   0.44345   0.93521   0.00000  Uiso   1.00
Fe8    Fe    0.24996   0.33518   0.74996   0.00000  Uiso   1.00
C145   C     0.21394   0.14300   0.79467   0.00000  Uiso   1.00
C146   C     0.23632   0.12781   0.80405   0.00000  Uiso   1.00
C147   C     0.23607   0.10640   0.83165   0.00000  Uiso   1.00
C148   C     0.21300   0.10020   0.84916   0.00000  Uiso   1.00
C149   C     0.19081   0.11458   0.83935   0.00000  Uiso   1.00
C150   C     0.19088   0.13637   0.81219   0.00000  Uiso   1.00
O49    O     0.21530   0.16448   0.76765   0.00000  Uiso   1.00
O50    O     0.25854   0.13447   0.78531   0.00000  Uiso   1.00
H49    H     0.25340   0.09477   0.83922   0.00000  Uiso   1.00
O51    O     0.21095   0.07959   0.87676   0.00000  Uiso   1.00
O52    O     0.16900   0.10615   0.85778   0.00000  Uiso   1.00
H50    H     0.17343   0.14781   0.80477   0.00000  Uiso   1.00
Fe9    Cu    0.17775   0.07763   0.89038   0.00000  Uiso   1.00
C151   C     0.23620   0.87233   0.19626   0.00000  Uiso   1.00
C152   C     0.21383   0.85709   0.20557   0.00000  Uiso   1.00
C153   C     0.19078   0.86370   0.18799   0.00000  Uiso   1.00
C154   C     0.19072   0.88552   0.16086   0.00000  Uiso   1.00
C155   C     0.21291   0.89997   0.15117   0.00000  Uiso   1.00
C156   C     0.23596   0.89379   0.16872   0.00000  Uiso   1.00
O53    O     0.25842   0.86566   0.21501   0.00000  Uiso   1.00
O54    O     0.21518   0.83557   0.23254   0.00000  Uiso   1.00
H51    H     0.17333   0.85221   0.19533   0.00000  Uiso   1.00
O55    O     0.16893   0.89393   0.14238   0.00000  Uiso   1.00
O56    O     0.21087   0.92063   0.12361   0.00000  Uiso   1.00
H52    H     0.25328   0.90547   0.16123   0.00000  Uiso   1.00
Fe10   Cu    0.17769   0.92251   0.10987   0.00000  Uiso   1.00
C157   C     0.28616   0.85707   0.29454   0.00000  Uiso   1.00
C158   C     0.26377   0.87227   0.30388   0.00000  Uiso   1.00
C159   C     0.26399   0.89368   0.33149   0.00000  Uiso   1.00
C160   C     0.28703   0.89984   0.34908   0.00000  Uiso   1.00
C161   C     0.30923   0.88544   0.33934   0.00000  Uiso   1.00
C162   C     0.30919   0.86367   0.31215   0.00000  Uiso   1.00
O57    O     0.28483   0.83560   0.26750   0.00000  Uiso   1.00
O58    O     0.24157   0.86561   0.28509   0.00000  Uiso   1.00
H53    H     0.24666   0.90532   0.33900   0.00000  Uiso   1.00
O59    O     0.28906   0.92045   0.37671   0.00000  Uiso   1.00
O60    O     0.33101   0.89385   0.35785   0.00000  Uiso   1.00
H54    H     0.32665   0.85222   0.30479   0.00000  Uiso   1.00
Fe11   Cu    0.32225   0.92239   0.39041   0.00000  Uiso   1.00
C163   C     0.26391   0.12770   0.69644   0.00000  Uiso   1.00
C164   C     0.28630   0.14293   0.70575   0.00000  Uiso   1.00
C165   C     0.30933   0.13634   0.68815   0.00000  Uiso   1.00
C166   C     0.30937   0.11455   0.66098   0.00000  Uiso   1.00
C167   C     0.28717   0.10012   0.65127   0.00000  Uiso   1.00
C168   C     0.26414   0.10627   0.66887   0.00000  Uiso   1.00
O61    O     0.24171   0.13436   0.71522   0.00000  Uiso   1.00
O62    O     0.28496   0.16444   0.73275   0.00000  Uiso   1.00
H55    H     0.32678   0.14782   0.69550   0.00000  Uiso   1.00
O63    O     0.33114   0.10617   0.64245   0.00000  Uiso   1.00
O64    O     0.28919   0.07952   0.62364   0.00000  Uiso   1.00
H56    H     0.24681   0.09461   0.66137   0.00000  Uiso   1.00
Fe12   Cu    0.32235   0.07764   0.60986   0.00000  Uiso   1.00
C169   C     0.78618   0.85710   0.20557   0.00000  Uiso   1.00
C170   C     0.76379   0.87229   0.19621   0.00000  Uiso   1.00
C171   C     0.76403   0.89371   0.16861   0.00000  Uiso   1.00
C172   C     0.78708   0.89988   0.15106   0.00000  Uiso   1.00
C173   C     0.80928   0.88549   0.16083   0.00000  Uiso   1.00
C174   C     0.80923   0.86372   0.18801   0.00000  Uiso   1.00
O65    O     0.78483   0.83562   0.23259   0.00000  Uiso   1.00
O66    O     0.74158   0.86563   0.21496   0.00000  Uiso   1.00
H57    H     0.74670   0.90534   0.16107   0.00000  Uiso   1.00
O67    O     0.78912   0.92048   0.12344   0.00000  Uiso   1.00
O68    O     0.83107   0.89391   0.14237   0.00000  Uiso   1.00
H58    H     0.82668   0.85226   0.19540   0.00000  Uiso   1.00
Fe13   Cu    0.82231   0.92243   0.10977   0.00000  Uiso   1.00
C175   C     0.76379   0.12775   0.80386   0.00000  Uiso   1.00
C176   C     0.78617   0.14297   0.79453   0.00000  Uiso   1.00
C177   C     0.80922   0.13637   0.81211   0.00000  Uiso   1.00
C178   C     0.80927   0.11457   0.83927   0.00000  Uiso   1.00
C179   C     0.78708   0.10015   0.84899   0.00000  Uiso   1.00
C180   C     0.76403   0.10632   0.83143   0.00000  Uiso   1.00
O69    O     0.74158   0.13442   0.78510   0.00000  Uiso   1.00
O70    O     0.78483   0.16446   0.76751   0.00000  Uiso   1.00
H59    H     0.82667   0.14784   0.80475   0.00000  Uiso   1.00
O71    O     0.83106   0.10617   0.85776   0.00000  Uiso   1.00
O72    O     0.78912   0.07952   0.87658   0.00000  Uiso   1.00
H60    H     0.74670   0.09466   0.83894   0.00000  Uiso   1.00
Fe14   Cu    0.82230   0.07761   0.89030   0.00000  Uiso   1.00
C181   C     0.71382   0.14299   0.70554   0.00000  Uiso   1.00
C182   C     0.73620   0.12777   0.69622   0.00000  Uiso   1.00
C183   C     0.73596   0.10636   0.66862   0.00000  Uiso   1.00
C184   C     0.71292   0.10021   0.65102   0.00000  Uiso   1.00
C185   C     0.69073   0.11464   0.66074   0.00000  Uiso   1.00
C186   C     0.69078   0.13642   0.68793   0.00000  Uiso   1.00
O73    O     0.71517   0.16446   0.73258   0.00000  Uiso   1.00
O74    O     0.75841   0.13440   0.71501   0.00000  Uiso   1.00
H61    H     0.75328   0.09469   0.66111   0.00000  Uiso   1.00
O75    O     0.71089   0.07960   0.62341   0.00000  Uiso   1.00
O76    O     0.66895   0.10625   0.64222   0.00000  Uiso   1.00
H62    H     0.67334   0.14791   0.69529   0.00000  Uiso   1.00
Fe15   Cu    0.67770   0.07769   0.60968   0.00000  Uiso   1.00
C187   C     0.73617   0.87231   0.30380   0.00000  Uiso   1.00
C188   C     0.71380   0.85709   0.29445   0.00000  Uiso   1.00
C189   C     0.69074   0.86370   0.31200   0.00000  Uiso   1.00
C190   C     0.69068   0.88549   0.33918   0.00000  Uiso   1.00
C191   C     0.71288   0.89990   0.34894   0.00000  Uiso   1.00
C192   C     0.73593   0.89373   0.33139   0.00000  Uiso   1.00
O77    O     0.75839   0.86566   0.28506   0.00000  Uiso   1.00
O78    O     0.71516   0.83558   0.26745   0.00000  Uiso   1.00
H63    H     0.67329   0.85223   0.30462   0.00000  Uiso   1.00
O79    O     0.66889   0.89390   0.35765   0.00000  Uiso   1.00
O80    O     0.71085   0.92052   0.37654   0.00000  Uiso   1.00
H64    H     0.75326   0.90539   0.33892   0.00000  Uiso   1.00
Fe16   Cu    0.67766   0.92243   0.39024   0.00000  Uiso   1.00
C193   C     0.71383   0.64296   0.29446   0.00000  Uiso   1.00
C194   C     0.73620   0.62775   0.30382   0.00000  Uiso   1.00
C195   C     0.73595   0.60630   0.33139   0.00000  Uiso   1.00
C196   C     0.71289   0.60012   0.34891   0.00000  Uiso   1.00
C197   C     0.69070   0.61453   0.33915   0.00000  Uiso   1.00
C198   C     0.69077   0.63633   0.31200   0.00000  Uiso   1.00
O81    O     0.71519   0.66447   0.26748   0.00000  Uiso   1.00
O82    O     0.75843   0.63442   0.28510   0.00000  Uiso   1.00
H65    H     0.75327   0.59465   0.33892   0.00000  Uiso   1.00
O83    O     0.71085   0.57949   0.37649   0.00000  Uiso   1.00
O84    O     0.66890   0.60611   0.35760   0.00000  Uiso   1.00
H66    H     0.67333   0.64780   0.30461   0.00000  Uiso   1.00
Fe17   Cu    0.67766   0.57759   0.39020   0.00000  Uiso   1.00
C199   C     0.73621   0.37226   0.69609   0.00000  Uiso   1.00
C200   C     0.71383   0.35705   0.70543   0.00000  Uiso   1.00
C201   C     0.69078   0.36364   0.68783   0.00000  Uiso   1.00
C202   C     0.69074   0.38542   0.66065   0.00000  Uiso   1.00
C203   C     0.71294   0.39983   0.65091   0.00000  Uiso   1.00
C204   C     0.73598   0.39367   0.66848   0.00000  Uiso   1.00
O85    O     0.75842   0.36562   0.71488   0.00000  Uiso   1.00
O86    O     0.71516   0.33559   0.73247   0.00000  Uiso   1.00
H67    H     0.67334   0.35218   0.69520   0.00000  Uiso   1.00
O87    O     0.66895   0.39383   0.64216   0.00000  Uiso   1.00
O88    O     0.71091   0.42045   0.62330   0.00000  Uiso   1.00
H68    H     0.75331   0.40532   0.66097   0.00000  Uiso   1.00
Fe18   Cu    0.67771   0.42240   0.60964   0.00000  Uiso   1.00
C205   C     0.78615   0.35707   0.79445   0.00000  Uiso   1.00
C206   C     0.76378   0.37230   0.80377   0.00000  Uiso   1.00
C207   C     0.76401   0.39372   0.83137   0.00000  Uiso   1.00
C208   C     0.78705   0.39986   0.84897   0.00000  Uiso   1.00
C209   C     0.80924   0.38543   0.83926   0.00000  Uiso   1.00
C210   C     0.80919   0.36365   0.81207   0.00000  Uiso   1.00
O89    O     0.78482   0.33560   0.76742   0.00000  Uiso   1.00
O90    O     0.74158   0.36566   0.78496   0.00000  Uiso   1.00
H69    H     0.74668   0.40538   0.83887   0.00000  Uiso   1.00
O91    O     0.78909   0.42048   0.87659   0.00000  Uiso   1.00
O92    O     0.83102   0.39381   0.85778   0.00000  Uiso   1.00
H70    H     0.82664   0.35217   0.80473   0.00000  Uiso   1.00
Fe19   Cu    0.82227   0.42237   0.89034   0.00000  Uiso   1.00
C211   C     0.76383   0.62775   0.19626   0.00000  Uiso   1.00
C212   C     0.78621   0.64296   0.20561   0.00000  Uiso   1.00
C213   C     0.80927   0.63635   0.18805   0.00000  Uiso   1.00
C214   C     0.80932   0.61457   0.16087   0.00000  Uiso   1.00
C215   C     0.78712   0.60016   0.15111   0.00000  Uiso   1.00
C216   C     0.76407   0.60633   0.16867   0.00000  Uiso   1.00
O93    O     0.74162   0.63442   0.21500   0.00000  Uiso   1.00
O94    O     0.78487   0.66446   0.23262   0.00000  Uiso   1.00
H71    H     0.82672   0.64781   0.19543   0.00000  Uiso   1.00
O95    O     0.83111   0.60616   0.14239   0.00000  Uiso   1.00
O96    O     0.78915   0.57956   0.12350   0.00000  Uiso   1.00
H72    H     0.74674   0.59468   0.16114   0.00000  Uiso   1.00
Fe20   Cu    0.82233   0.57763   0.10979   0.00000  Uiso   1.00
C217   C     0.28611   0.35701   0.70541   0.00000  Uiso   1.00
C218   C     0.26374   0.37224   0.69608   0.00000  Uiso   1.00
C219   C     0.26399   0.39366   0.66849   0.00000  Uiso   1.00
C220   C     0.28703   0.39981   0.65092   0.00000  Uiso   1.00
C221   C     0.30921   0.38534   0.66061   0.00000  Uiso   1.00
C222   C     0.30915   0.36355   0.68778   0.00000  Uiso   1.00
O97    O     0.28478   0.33557   0.73249   0.00000  Uiso   1.00
O98    O     0.24154   0.36561   0.71487   0.00000  Uiso   1.00
H73    H     0.24668   0.40536   0.66099   0.00000  Uiso   1.00
O99    O     0.28908   0.42046   0.62336   0.00000  Uiso   1.00
O100   O     0.33099   0.39372   0.64209   0.00000  Uiso   1.00
H74    H     0.32658   0.35204   0.69514   0.00000  Uiso   1.00
Fe21   Cu    0.32225   0.42235   0.60963   0.00000  Uiso   1.00
C223   C     0.26380   0.62773   0.30375   0.00000  Uiso   1.00
C224   C     0.28620   0.64290   0.29438   0.00000  Uiso   1.00
C225   C     0.30925   0.63623   0.31189   0.00000  Uiso   1.00
C226   C     0.30930   0.61444   0.33906   0.00000  Uiso   1.00
C227   C     0.28708   0.60010   0.34887   0.00000  Uiso   1.00
C228   C     0.26403   0.60632   0.33135   0.00000  Uiso   1.00
O101   O     0.24159   0.63441   0.28499   0.00000  Uiso   1.00
O102   O     0.28486   0.66442   0.26740   0.00000  Uiso   1.00
H75    H     0.32671   0.64765   0.30448   0.00000  Uiso   1.00
O103   O     0.33109   0.60598   0.35749   0.00000  Uiso   1.00
O104   O     0.28910   0.57951   0.37650   0.00000  Uiso   1.00
H76    H     0.24668   0.59472   0.33890   0.00000  Uiso   1.00
Fe22   Cu    0.32230   0.57752   0.39015   0.00000  Uiso   1.00
C229   C     0.21384   0.64300   0.20546   0.00000  Uiso   1.00
C230   C     0.23621   0.62776   0.19613   0.00000  Uiso   1.00
C231   C     0.23596   0.60633   0.16856   0.00000  Uiso   1.00
C232   C     0.21292   0.60017   0.15099   0.00000  Uiso   1.00
C233   C     0.19073   0.61461   0.16070   0.00000  Uiso   1.00
C234   C     0.19079   0.63641   0.18786   0.00000  Uiso   1.00
O105   O     0.21519   0.66448   0.23248   0.00000  Uiso   1.00
O106   O     0.25842   0.63440   0.21490   0.00000  Uiso   1.00
H77    H     0.25328   0.59466   0.16105   0.00000  Uiso   1.00
O107   O     0.21087   0.57952   0.12342   0.00000  Uiso   1.00
O108   O     0.16894   0.60621   0.14221   0.00000  Uiso   1.00
H78    H     0.17335   0.64789   0.19520   0.00000  Uiso   1.00
Fe23   Cu    0.17769   0.57763   0.10969   0.00000  Uiso   1.00
C235   C     0.23617   0.37234   0.80374   0.00000  Uiso   1.00
C236   C     0.21379   0.35712   0.79441   0.00000  Uiso   1.00
C237   C     0.19075   0.36373   0.81198   0.00000  Uiso   1.00
C238   C     0.19070   0.38552   0.83914   0.00000  Uiso   1.00
C239   C     0.21290   0.39993   0.84889   0.00000  Uiso   1.00
C240   C     0.23594   0.39376   0.83133   0.00000  Uiso   1.00
O109   O     0.25838   0.36568   0.78496   0.00000  Uiso   1.00
O110   O     0.21513   0.33561   0.76741   0.00000  Uiso   1.00
H79    H     0.17329   0.35227   0.80462   0.00000  Uiso   1.00
O111   O     0.16891   0.39393   0.85761   0.00000  Uiso   1.00
O112   O     0.21087   0.42054   0.87650   0.00000  Uiso   1.00
H80    H     0.25327   0.40541   0.83886   0.00000  Uiso   1.00
Fe24   Cu    0.17768   0.42243   0.89022   0.00000  Uiso   1.00
Fe25   Cu    0.00000   0.00013   0.00013   0.00000  Uiso   1.00
C241   C     0.24117   0.75001   0.28582   0.00000  Uiso   1.00
C242   C     0.24562   0.77702   0.26779   0.00000  Uiso   1.00
C243   C     0.25444   0.77703   0.23220   0.00000  Uiso   1.00
C244   C     0.25892   0.75003   0.21414   0.00000  Uiso   1.00
C245   C     0.25445   0.72302   0.23218   0.00000  Uiso   1.00
C246   C     0.24564   0.72301   0.26777   0.00000  Uiso   1.00
H81    H     0.23433   0.75000   0.31343   0.00000  Uiso   1.00
O113   O     0.24144   0.80435   0.28455   0.00000  Uiso   1.00
O114   O     0.25860   0.80438   0.21547   0.00000  Uiso   1.00
H82    H     0.26575   0.75004   0.18654   0.00000  Uiso   1.00
O115   O     0.25862   0.69568   0.21542   0.00000  Uiso   1.00
O116   O     0.24147   0.69567   0.28451   0.00000  Uiso   1.00
Fe26   Cu    0.49998   0.00002   0.50003   0.00000  Uiso   1.00
C247   C     0.25892   0.25007   0.78591   0.00000  Uiso   1.00
C248   C     0.25450   0.22305   0.76790   0.00000  Uiso   1.00
C249   C     0.24567   0.22299   0.73231   0.00000  Uiso   1.00
C250   C     0.24117   0.24997   0.71423   0.00000  Uiso   1.00
C251   C     0.24559   0.27700   0.73224   0.00000  Uiso   1.00
C252   C     0.25441   0.27706   0.76783   0.00000  Uiso   1.00
H83    H     0.26577   0.25011   0.81351   0.00000  Uiso   1.00
O117   O     0.25870   0.19573   0.78468   0.00000  Uiso   1.00
O118   O     0.24155   0.19563   0.71559   0.00000  Uiso   1.00
H84    H     0.23434   0.24993   0.68662   0.00000  Uiso   1.00
O119   O     0.24139   0.30432   0.71546   0.00000  Uiso   1.00
O120   O     0.25854   0.30441   0.78455   0.00000  Uiso   1.00
C253   C     0.75888   0.25001   0.71417   0.00000  Uiso   1.00
C254   C     0.75442   0.22301   0.73223   0.00000  Uiso   1.00
C255   C     0.74559   0.22303   0.76781   0.00000  Uiso   1.00
C256   C     0.74111   0.25004   0.78583   0.00000  Uiso   1.00
C257   C     0.74558   0.27704   0.76777   0.00000  Uiso   1.00
C258   C     0.75441   0.27702   0.73219   0.00000  Uiso   1.00
H85    H     0.76573   0.25000   0.68657   0.00000  Uiso   1.00
O121   O     0.75858   0.19567   0.71550   0.00000  Uiso   1.00
O122   O     0.74143   0.19570   0.78458   0.00000  Uiso   1.00
H86    H     0.73427   0.25006   0.81343   0.00000  Uiso   1.00
O123   O     0.74140   0.30439   0.78450   0.00000  Uiso   1.00
O124   O     0.75857   0.30435   0.71542   0.00000  Uiso   1.00
C259   C     0.75889   0.75004   0.28589   0.00000  Uiso   1.00
C260   C     0.75443   0.72303   0.26785   0.00000  Uiso   1.00
C261   C     0.74563   0.72302   0.23225   0.00000  Uiso   1.00
C262   C     0.74116   0.75002   0.21419   0.00000  Uiso   1.00
C263   C     0.74561   0.77703   0.23224   0.00000  Uiso   1.00
C264   C     0.75442   0.77704   0.26784   0.00000  Uiso   1.00
H87    H     0.76572   0.75006   0.31350   0.00000  Uiso   1.00
O125   O     0.75860   0.69570   0.28460   0.00000  Uiso   1.00
O126   O     0.74147   0.69568   0.21550   0.00000  Uiso   1.00
H88    H     0.73434   0.75001   0.18658   0.00000  Uiso   1.00
O127   O     0.74144   0.80436   0.21548   0.00000  Uiso   1.00
O128   O     0.75857   0.80439   0.28458   0.00000  Uiso   1.00
Fe27   Cu    0.49998   0.50002   0.50001   0.00000  Uiso   1.00
Fe28   Cu    0.99999   0.49994   0.00004   0.00000  Uiso   1.00
loop_
_geom_bond_atom_site_label_1
_geom_bond_atom_site_label_2
_geom_bond_distance
_geom_bond_site_symmetry_2
_ccdc_geom_bond_type
C1     C2      1.430   .     A
C1     C6      1.421   1_546 A
C1     C11     1.422   .     A
C2     C3      1.426   .     A
C2     C14     1.425   .     A
C3     C4      1.434   1_546 A
C3     C10     1.424   .     A
C4     C3      1.434   1_564 A
C4     C5      1.427   .     A
C4     C7      1.424   .     A
C5     C6      1.430   .     A
C5     C18     1.425   .     A
C6     C1      1.421   1_564 A
C6     C15     1.422   .     A
C7     C8      1.389   .     A
C7     H1      1.075   .     S
C8     C9      1.361   1_564 A
C8     O1      1.382   .     S
C9     C8      1.361   1_546 A
C9     C10     1.388   .     A
C9     O2      1.382   .     S
C10    H2      1.075   .     S
C11    C12     1.388   .     A
C11    H3      1.078   .     S
C12    C13     1.361   .     A
C12    O3      1.381   .     S
C13    C14     1.391   .     A
C13    O4      1.383   .     S
C14    H4      1.075   .     S
C15    C16     1.388   .     A
C15    H5      1.078   .     S
C16    C17     1.361   .     A
C16    O5      1.381   .     S
C17    C18     1.391   .     A
C17    O6      1.383   .     S
C18    H6      1.075   .     S
O1     Fe25    1.811   1_565 S
O2     Fe25    1.811   1_556 S
O3     Fe9     1.810   .     S
O4     Fe9     1.812   .     S
O5     Fe10    1.810   .     S
O6     Fe10    1.812   .     S
Fe1    O53     1.931   .     S
Fe1    O54     1.935   .     S
Fe1    O57     1.934   .     S
Fe1    O58     1.931   .     S
Fe1    O113    1.932   .     S
Fe1    O114    1.932   .     S
C19    C20     1.430   .     A
C19    C24     1.422   1_565 A
C19    C29     1.422   .     A
C20    C21     1.426   .     A
C20    C32     1.425   .     A
C21    C22     1.434   1_565 A
C21    C28     1.424   .     A
C22    C21     1.434   1_545 A
C22    C23     1.427   .     A
C22    C25     1.424   .     A
C23    C24     1.430   .     A
C23    C36     1.425   .     A
C24    C19     1.422   1_545 A
C24    C33     1.422   .     A
C25    C26     1.389   .     A
C25    H7      1.075   .     S
C26    C27     1.361   1_545 A
C26    O7      1.382   .     S
C27    C26     1.361   1_565 A
C27    C28     1.388   .     A
C27    O8      1.382   .     S
C28    H8      1.075   .     S
C29    C30     1.388   .     A
C29    H9      1.078   .     S
C30    C31     1.361   .     A
C30    O9      1.381   .     S
C31    C32     1.391   .     A
C31    O10     1.383   .     S
C32    H10     1.075   .     S
C33    C34     1.388   .     A
C33    H11     1.077   .     S
C34    C35     1.361   .     A
C34    O11     1.381   .     S
C35    C36     1.391   .     A
C35    O12     1.383   .     S
C36    H12     1.075   .     S
O7     Fe26    1.811   .     S
O8     Fe26    1.811   1_565 S
O9     Fe11    1.810   .     S
O10    Fe11    1.812   .     S
O11    Fe12    1.810   .     S
O12    Fe12    1.812   .     S
Fe2    O49     1.934   .     S
Fe2    O50     1.931   .     S
Fe2    O61     1.931   .     S
Fe2    O62     1.934   .     S
Fe2    O117    1.932   .     S
Fe2    O118    1.932   .     S
C37    C38     1.430   .     A
C37    C42     1.422   1_564 A
C37    C47     1.422   .     A
C38    C39     1.426   .     A
C38    C50     1.425   .     A
C39    C40     1.434   1_564 A
C39    C46     1.424   .     A
C40    C39     1.434   1_546 A
C40    C41     1.427   .     A
C40    C43     1.424   .     A
C41    C42     1.430   .     A
C41    C54     1.425   .     A
C42    C37     1.422   1_546 A
C42    C51     1.422   .     A
C43    C44     1.389   .     A
C43    H13     1.075   .     S
C44    C45     1.361   1_546 A
C44    O13     1.382   .     S
C45    C44     1.361   1_564 A
C45    C46     1.389   .     A
C45    O14     1.382   .     S
C46    H14     1.075   .     S
C47    C48     1.388   .     A
C47    H15     1.078   .     S
C48    C49     1.361   .     A
C48    O15     1.381   .     S
C49    C50     1.391   .     A
C49    O16     1.383   .     S
C50    H16     1.075   .     S
C51    C52     1.388   .     A
C51    H17     1.077   .     S
C52    C53     1.361   .     A
C52    O17     1.381   .     S
C53    C54     1.391   .     A
C53    O18     1.383   .     S
C54    H18     1.075   .     S
O13    Fe25    1.811   1_656 S
O14    Fe25    1.811   1_665 S
O15    Fe13    1.810   .     S
O16    Fe13    1.812   .     S
O17    Fe14    1.810   .     S
O18    Fe14    1.812   .     S
Fe3    O69     1.932   .     S
Fe3    O70     1.934   .     S
Fe3    O73     1.934   .     S
Fe3    O74     1.931   .     S
Fe3    O121    1.932   .     S
Fe3    O122    1.932   .     S
C55    C56     1.430   .     A
C55    C60     1.422   1_545 A
C55    C65     1.422   .     A
C56    C57     1.426   .     A
C56    C68     1.425   .     A
C57    C58     1.434   1_545 A
C57    C64     1.424   .     A
C58    C57     1.434   1_565 A
C58    C59     1.427   .     A
C58    C61     1.424   .     A
C59    C60     1.430   .     A
C59    C72     1.426   .     A
C60    C55     1.422   1_565 A
C60    C69     1.422   .     A
C61    C62     1.389   .     A
C61    H19     1.075   .     S
C62    C63     1.361   1_565 A
C62    O19     1.382   .     S
C63    C62     1.361   1_545 A
C63    C64     1.389   .     A
C63    O20     1.382   .     S
C64    H20     1.075   .     S
C65    C66     1.388   .     A
C65    H21     1.078   .     S
C66    C67     1.361   .     A
C66    O21     1.381   .     S
C67    C68     1.391   .     A
C67    O22     1.383   .     S
C68    H22     1.075   .     S
C69    C70     1.388   .     A
C69    H23     1.077   .     S
C70    C71     1.361   .     A
C70    O23     1.381   .     S
C71    C72     1.391   .     A
C71    O24     1.383   .     S
C72    H24     1.075   .     S
O19    Fe26    1.811   1_565 S
O20    Fe26    1.811   .     S
O21    Fe15    1.810   .     S
O22    Fe15    1.812   .     S
O23    Fe16    1.810   .     S
O24    Fe16    1.812   .     S
Fe4    O65     1.934   .     S
Fe4    O66     1.931   .     S
Fe4    O77     1.931   .     S
Fe4    O78     1.935   .     S
Fe4    O127    1.932   .     S
Fe4    O128    1.932   .     S
C73    C74     1.430   .     A
C73    C78     1.421   .     A
C73    C83     1.422   .     A
C74    C75     1.426   .     A
C74    C86     1.425   .     A
C75    C76     1.434   .     A
C75    C82     1.424   .     A
C76    C77     1.426   .     A
C76    C79     1.424   .     A
C77    C78     1.430   .     A
C77    C90     1.425   .     A
C78    C87     1.422   .     A
C79    C80     1.389   .     A
C79    H25     1.075   .     S
C80    C81     1.361   .     A
C80    O25     1.382   .     S
C81    C82     1.389   .     A
C81    O26     1.382   .     S
C82    H26     1.075   .     S
C83    C84     1.387   .     A
C83    H27     1.077   .     S
C84    C85     1.361   .     A
C84    O27     1.381   .     S
C85    C86     1.391   .     A
C85    O28     1.383   .     S
C86    H28     1.075   .     S
C87    C88     1.388   .     A
C87    H29     1.078   .     S
C88    C89     1.361   .     A
C88    O29     1.381   .     S
C89    C90     1.391   .     A
C89    O30     1.383   .     S
C90    H30     1.075   .     S
O25    Fe27    1.810   .     S
O26    Fe27    1.811   .     S
O27    Fe17    1.810   .     S
O28    Fe17    1.812   .     S
O29    Fe18    1.810   .     S
O30    Fe18    1.812   .     S
Fe5    O85     1.931   .     S
Fe5    O86     1.934   .     S
Fe5    O89     1.934   .     S
Fe5    O90     1.931   .     S
Fe5    O123    1.932   .     S
Fe5    O124    1.932   .     S
C91    C92     1.430   .     A
C91    C96     1.422   1_556 A
C91    C101    1.422   .     A
C92    C93     1.426   .     A
C92    C104    1.426   .     A
C93    C94     1.435   1_556 A
C93    C100    1.424   .     A
C94    C93     1.435   1_554 A
C94    C95     1.427   .     A
C94    C97     1.424   .     A
C95    C96     1.430   .     A
C95    C108    1.426   .     A
C96    C91     1.422   1_554 A
C96    C105    1.422   .     A
C97    C98     1.388   .     A
C97    H31     1.075   .     S
C98    C99     1.361   1_554 A
C98    O31     1.382   .     S
C99    C98     1.361   1_556 A
C99    C100    1.388   .     A
C99    O32     1.382   .     S
C100   H32     1.075   .     S
C101   C102    1.388   .     A
C101   H33     1.077   .     S
C102   C103    1.361   .     A
C102   O33     1.381   .     S
C103   C104    1.391   .     A
C103   O34     1.383   .     S
C104   H34     1.075   .     S
C105   C106    1.388   .     A
C105   H35     1.078   .     S
C106   C107    1.361   .     A
C106   O35     1.381   .     S
C107   C108    1.391   .     A
C107   O36     1.383   .     S
C108   H36     1.075   .     S
O31    Fe28    1.810   .     S
O32    Fe28    1.811   1_556 S
O33    Fe19    1.810   .     S
O34    Fe19    1.812   .     S
O35    Fe20    1.810   .     S
O36    Fe20    1.812   .     S
Fe6    O81     1.935   .     S
Fe6    O82     1.931   .     S
Fe6    O93     1.931   .     S
Fe6    O94     1.935   .     S
Fe6    O125    1.932   .     S
Fe6    O126    1.932   .     S
C109   C110    1.430   .     A
C109   C114    1.421   .     A
C109   C119    1.422   .     A
C110   C111    1.426   .     A
C110   C122    1.425   .     A
C111   C112    1.434   .     A
C111   C118    1.424   .     A
C112   C113    1.426   .     A
C112   C115    1.424   .     A
C113   C114    1.430   .     A
C113   C126    1.425   .     A
C114   C123    1.422   .     A
C115   C116    1.388   .     A
C115   H37     1.075   .     S
C116   C117    1.361   .     A
C116   O37     1.382   .     S
C117   C118    1.389   .     A
C117   O38     1.382   .     S
C118   H38     1.076   .     S
C119   C120    1.388   .     A
C119   H39     1.077   .     S
C120   C121    1.361   .     A
C120   O39     1.381   .     S
C121   C122    1.391   .     A
C121   O40     1.383   .     S
C122   H40     1.075   .     S
C123   C124    1.388   .     A
C123   H41     1.078   .     S
C124   C125    1.361   .     A
C124   O41     1.381   .     S
C125   C126    1.391   .     A
C125   O42     1.383   .     S
C126   H42     1.075   .     S
O37    Fe27    1.811   .     S
O38    Fe27    1.811   .     S
O39    Fe21    1.810   .     S
O40    Fe21    1.812   .     S
O41    Fe22    1.810   .     S
O42    Fe22    1.812   .     S
Fe7    O101    1.931   .     S
Fe7    O102    1.934   .     S
Fe7    O105    1.935   .     S
Fe7    O106    1.931   .     S
Fe7    O115    1.932   .     S
Fe7    O116    1.932   .     S
C127   C128    1.430   .     A
C127   C132    1.422   1_554 A
C127   C137    1.422   .     A
C128   C129    1.426   .     A
C128   C140    1.425   .     A
C129   C130    1.434   1_554 A
C129   C136    1.424   .     A
C130   C129    1.434   1_556 A
C130   C131    1.427   .     A
C130   C133    1.424   .     A
C131   C132    1.430   .     A
C131   C144    1.425   .     A
C132   C127    1.422   1_556 A
C132   C141    1.422   .     A
C133   C134    1.389   .     A
C133   H43     1.075   .     S
C134   C135    1.361   1_556 A
C134   O43     1.382   .     S
C135   C134    1.361   1_554 A
C135   C136    1.389   .     A
C135   O44     1.382   .     S
C136   H44     1.075   .     S
C137   C138    1.388   .     A
C137   H45     1.078   .     S
C138   C139    1.361   .     A
C138   O45     1.381   .     S
C139   C140    1.391   .     A
C139   O46     1.383   .     S
C140   H46     1.076   .     S
C141   C142    1.388   .     A
C141   H47     1.078   .     S
C142   C143    1.361   .     A
C142   O47     1.381   .     S
C143   C144    1.391   .     A
C143   O48     1.383   .     S
C144   H48     1.075   .     S
O43    Fe28    1.811   1_456 S
O44    Fe28    1.811   1_455 S
O45    Fe23    1.810   .     S
O46    Fe23    1.812   .     S
O47    Fe24    1.810   .     S
O48    Fe24    1.812   .     S
Fe8    O97     1.934   .     S
Fe8    O98     1.932   .     S
Fe8    O109    1.932   .     S
Fe8    O110    1.934   .     S
Fe8    O119    1.933   .     S
Fe8    O120    1.932   .     S
C145   C146    1.398   .     A
C145   C150    1.402   .     A
C145   O49     1.388   .     S
C146   C147    1.400   .     A
C146   O50     1.387   .     S
C147   C148    1.398   .     A
C147   H49     1.082   .     S
C148   C149    1.377   .     A
C148   O51     1.380   .     S
C149   C150    1.400   .     A
C149   O52     1.382   .     S
C150   H50     1.082   .     S
O51    Fe9     1.812   .     S
O52    Fe9     1.814   .     S
C151   C152    1.398   .     A
C151   C156    1.400   .     A
C151   O53     1.387   .     S
C152   C153    1.402   .     A
C152   O54     1.388   .     S
C153   C154    1.400   .     A
C153   H51     1.082   .     S
C154   C155    1.377   .     A
C154   O55     1.382   .     S
C155   C156    1.398   .     A
C155   O56     1.380   .     S
C156   H52     1.082   .     S
O55    Fe10    1.814   .     S
O56    Fe10    1.812   .     S
C157   C158    1.398   .     A
C157   C162    1.402   .     A
C157   O57     1.388   .     S
C158   C159    1.400   .     A
C158   O58     1.387   .     S
C159   C160    1.398   .     A
C159   H53     1.082   .     S
C160   C161    1.377   .     A
C160   O59     1.380   .     S
C161   C162    1.400   .     A
C161   O60     1.382   .     S
C162   H54     1.082   .     S
O59    Fe11    1.812   .     S
O60    Fe11    1.814   .     S
C163   C164    1.398   .     A
C163   C168    1.400   .     A
C163   O61     1.387   .     S
C164   C165    1.402   .     A
C164   O62     1.388   .     S
C165   C166    1.400   .     A
C165   H55     1.082   .     S
C166   C167    1.377   .     A
C166   O63     1.382   .     S
C167   C168    1.398   .     A
C167   O64     1.380   .     S
C168   H56     1.082   .     S
O63    Fe12    1.814   .     S
O64    Fe12    1.812   .     S
C169   C170    1.398   .     A
C169   C174    1.402   .     A
C169   O65     1.388   .     S
C170   C171    1.400   .     A
C170   O66     1.387   .     S
C171   C172    1.398   .     A
C171   H57     1.082   .     S
C172   C173    1.377   .     A
C172   O67     1.380   .     S
C173   C174    1.400   .     A
C173   O68     1.382   .     S
C174   H58     1.082   .     S
O67    Fe13    1.812   .     S
O68    Fe13    1.814   .     S
C175   C176    1.398   .     A
C175   C180    1.400   .     A
C175   O69     1.387   .     S
C176   C177    1.402   .     A
C176   O70     1.388   .     S
C177   C178    1.400   .     A
C177   H59     1.082   .     S
C178   C179    1.377   .     A
C178   O71     1.382   .     S
C179   C180    1.398   .     A
C179   O72     1.380   .     S
C180   H60     1.082   .     S
O71    Fe14    1.814   .     S
O72    Fe14    1.812   .     S
C181   C182    1.398   .     A
C181   C186    1.402   .     A
C181   O73     1.388   .     S
C182   C183    1.400   .     A
C182   O74     1.387   .     S
C183   C184    1.398   .     A
C183   H61     1.082   .     S
C184   C185    1.377   .     A
C184   O75     1.380   .     S
C185   C186    1.400   .     A
C185   O76     1.382   .     S
C186   H62     1.082   .     S
O75    Fe15    1.812   .     S
O76    Fe15    1.814   .     S
C187   C188    1.398   .     A
C187   C192    1.400   .     A
C187   O77     1.387   .     S
C188   C189    1.402   .     A
C188   O78     1.388   .     S
C189   C190    1.400   .     A
C189   H63     1.082   .     S
C190   C191    1.377   .     A
C190   O79     1.382   .     S
C191   C192    1.398   .     A
C191   O80     1.380   .     S
C192   H64     1.082   .     S
O79    Fe16    1.814   .     S
O80    Fe16    1.812   .     S
C193   C194    1.398   .     A
C193   C198    1.402   .     A
C193   O81     1.388   .     S
C194   C195    1.400   .     A
C194   O82     1.387   .     S
C195   C196    1.398   .     A
C195   H65     1.082   .     S
C196   C197    1.377   .     A
C196   O83     1.380   .     S
C197   C198    1.400   .     A
C197   O84     1.382   .     S
C198   H66     1.082   .     S
O83    Fe17    1.812   .     S
O84    Fe17    1.814   .     S
C199   C200    1.398   .     A
C199   C204    1.400   .     A
C199   O85     1.387   .     S
C200   C201    1.402   .     A
C200   O86     1.388   .     S
C201   C202    1.400   .     A
C201   H67     1.082   .     S
C202   C203    1.377   .     A
C202   O87     1.382   .     S
C203   C204    1.398   .     A
C203   O88     1.380   .     S
C204   H68     1.082   .     S
O87    Fe18    1.814   .     S
O88    Fe18    1.812   .     S
C205   C206    1.398   .     A
C205   C210    1.402   .     A
C205   O89     1.388   .     S
C206   C207    1.400   .     A
C206   O90     1.387   .     S
C207   C208    1.398   .     A
C207   H69     1.082   .     S
C208   C209    1.377   .     A
C208   O91     1.380   .     S
C209   C210    1.400   .     A
C209   O92     1.382   .     S
C210   H70     1.082   .     S
O91    Fe19    1.812   .     S
O92    Fe19    1.814   .     S
C211   C212    1.398   .     A
C211   C216    1.400   .     A
C211   O93     1.387   .     S
C212   C213    1.402   .     A
C212   O94     1.388   .     S
C213   C214    1.400   .     A
C213   H71     1.082   .     S
C214   C215    1.377   .     A
C214   O95     1.382   .     S
C215   C216    1.398   .     A
C215   O96     1.380   .     S
C216   H72     1.082   .     S
O95    Fe20    1.814   .     S
O96    Fe20    1.812   .     S
C217   C218    1.398   .     A
C217   C222    1.402   .     A
C217   O97     1.388   .     S
C218   C219    1.400   .     A
C218   O98     1.387   .     S
C219   C220    1.398   .     A
C219   H73     1.082   .     S
C220   C221    1.377   .     A
C220   O99     1.380   .     S
C221   C222    1.400   .     A
C221   O100    1.382   .     S
C222   H74     1.082   .     S
O99    Fe21    1.812   .     S
O100   Fe21    1.815   .     S
C223   C224    1.398   .     A
C223   C228    1.400   .     A
C223   O101    1.387   .     S
C224   C225    1.402   .     A
C224   O102    1.388   .     S
C225   C226    1.400   .     A
C225   H75     1.082   .     S
C226   C227    1.377   .     A
C226   O103    1.382   .     S
C227   C228    1.398   .     A
C227   O104    1.380   .     S
C228   H76     1.082   .     S
O103   Fe22    1.814   .     S
O104   Fe22    1.812   .     S
C229   C230    1.398   .     A
C229   C234    1.402   .     A
C229   O105    1.388   .     S
C230   C231    1.400   .     A
C230   O106    1.387   .     S
C231   C232    1.398   .     A
C231   H77     1.082   .     S
C232   C233    1.377   .     A
C232   O107    1.380   .     S
C233   C234    1.400   .     A
C233   O108    1.382   .     S
C234   H78     1.082   .     S
O107   Fe23    1.812   .     S
O108   Fe23    1.814   .     S
C235   C236    1.398   .     A
C235   C240    1.400   .     A
C235   O109    1.387   .     S
C236   C237    1.402   .     A
C236   O110    1.388   .     S
C237   C238    1.400   .     A
C237   H79     1.082   .     S
C238   C239    1.377   .     A
C238   O111    1.382   .     S
C239   C240    1.398   .     A
C239   O112    1.380   .     S
C240   H80     1.082   .     S
O111   Fe24    1.814   .     S
O112   Fe24    1.812   .     S
Fe25   O1      1.811   1_545 S
Fe25   O14     1.811   1_445 S
Fe25   O2      1.811   1_554 S
Fe25   O13     1.811   1_454 S
C241   C242    1.399   .     A
C241   C246    1.399   .     A
C241   H81     1.083   .     S
C242   C243    1.396   .     A
C242   O113    1.388   .     S
C243   C244    1.399   .     A
C243   O114    1.388   .     S
C244   C245    1.399   .     A
C244   H82     1.083   .     S
C245   C246    1.396   .     A
C245   O115    1.388   .     S
C246   O116    1.388   .     S
Fe26   O19     1.811   1_545 S
Fe26   O8      1.811   1_545 S
C247   C248    1.399   .     A
C247   C252    1.400   .     A
C247   H83     1.083   .     S
C248   C249    1.396   .     A
C248   O117    1.388   .     S
C249   C250    1.400   .     A
C249   O118    1.387   .     S
C250   C251    1.399   .     A
C250   H84     1.083   .     S
C251   C252    1.396   .     A
C251   O119    1.388   .     S
C252   O120    1.387   .     S
C253   C254    1.399   .     A
C253   C258    1.399   .     A
C253   H85     1.083   .     S
C254   C255    1.396   .     A
C254   O121    1.388   .     S
C255   C256    1.399   .     A
C255   O122    1.388   .     S
C256   C257    1.399   .     A
C256   H86     1.083   .     S
C257   C258    1.396   .     A
C257   O123    1.388   .     S
C258   O124    1.388   .     S
C259   C260    1.399   .     A
C259   C264    1.399   .     A
C259   H87     1.083   .     S
C260   C261    1.396   .     A
C260   O125    1.388   .     S
C261   C262    1.399   .     A
C261   O126    1.388   .     S
C262   C263    1.399   .     A
C262   H88     1.083   .     S
C263   C264    1.396   .     A
C263   O127    1.388   .     S
C264   O128    1.388   .     S
Fe28   O44     1.811   1_655 S
Fe28   O32     1.811   1_554 S
Fe28   O43     1.811   1_654 S
