data_mou-PcMN_O-Zntet
_audit_creation_date              2021-11-06
_audit_creation_method            'Materials Studio'
_symmetry_space_group_name_H-M    'P1'
_symmetry_Int_Tables_number       1
_symmetry_cell_setting            triclinic
loop_
_symmetry_equiv_pos_as_xyz
  x,y,z
_cell_length_a                    67.7403
_cell_length_b                    67.7407
_cell_length_c                    22.7688
_cell_angle_alpha                 90.0199
_cell_angle_beta                  90.0175
_cell_angle_gamma                 89.7314
loop_
_atom_site_label
_atom_site_type_symbol
_atom_site_fract_x
_atom_site_fract_y
_atom_site_fract_z
_atom_site_U_iso_or_equiv
_atom_site_adp_type
_atom_site_occupancy
C1     C     0.98547   0.92971   0.00249   0.00000  Uiso   1.00
C2     C     0.99592   0.91163   0.00251   0.00000  Uiso   1.00
C3     C     0.01706   0.91157   0.00243   0.00000  Uiso   1.00
C4     C     0.02744   0.92958   0.00233   0.00000  Uiso   1.00
C5     C     0.01645   0.94704   0.00230   0.00000  Uiso   1.00
C6     C     0.99640   0.94710   0.00238   0.00000  Uiso   1.00
C7     C     0.99063   0.96662   0.00232   0.00000  Uiso   1.00
N1     N     0.00638   0.97898   0.00219   0.00000  Uiso   1.00
C8     C     0.02216   0.96652   0.00218   0.00000  Uiso   1.00
N2     N     0.04106   0.97217   0.00206   0.00000  Uiso   1.00
C9     C     0.04675   0.99106   0.00193   0.00000  Uiso   1.00
N3     N     0.03431   0.00687   0.00191   0.00000  Uiso   1.00
C10    C     0.04671   0.02259   0.00179   0.00000  Uiso   1.00
C11    C     0.06621   0.01679   0.00173   0.00000  Uiso   1.00
C12    C     0.06624   0.99673   0.00182   0.00000  Uiso   1.00
N4     N     0.00630   0.03493   0.00190   0.00000  Uiso   1.00
C13    C     0.02204   0.04730   0.00178   0.00000  Uiso   1.00
N5     N     0.04096   0.04152   0.00173   0.00000  Uiso   1.00
C14    C     0.01628   0.06681   0.00171   0.00000  Uiso   1.00
C15    C     0.99622   0.06687   0.00180   0.00000  Uiso   1.00
C16    C     0.99052   0.04739   0.00191   0.00000  Uiso   1.00
C17    C     0.08367   0.98572   0.00180   0.00000  Uiso   1.00
C18    C     0.10171   0.99607   0.00170   0.00000  Uiso   1.00
C19    C     0.10168   0.01720   0.00161   0.00000  Uiso   1.00
C20    C     0.08362   0.02768   0.00162   0.00000  Uiso   1.00
C21    C     0.98523   0.08433   0.00177   0.00000  Uiso   1.00
C22    C     0.99562   0.10234   0.00167   0.00000  Uiso   1.00
C23    C     0.01675   0.10228   0.00159   0.00000  Uiso   1.00
C24    C     0.02720   0.08421   0.00160   0.00000  Uiso   1.00
N6     N     0.97836   0.00705   0.00218   0.00000  Uiso   1.00
C25    C     0.96593   0.02285   0.00217   0.00000  Uiso   1.00
N7     N     0.97161   0.04174   0.00204   0.00000  Uiso   1.00
C26    C     0.94644   0.01718   0.00228   0.00000  Uiso   1.00
C27    C     0.94646   0.99713   0.00237   0.00000  Uiso   1.00
C28    C     0.96597   0.99132   0.00231   0.00000  Uiso   1.00
C29    C     0.92905   0.98623   0.00247   0.00000  Uiso   1.00
C30    C     0.91099   0.99671   0.00248   0.00000  Uiso   1.00
C31    C     0.91097   0.01785   0.00240   0.00000  Uiso   1.00
C32    C     0.92900   0.02820   0.00230   0.00000  Uiso   1.00
N8     N     0.97171   0.97239   0.00237   0.00000  Uiso   1.00
H1     H     0.96948   0.93019   0.00255   0.00000  Uiso   1.00
H2     H     0.04343   0.92997   0.00226   0.00000  Uiso   1.00
H3     H     0.08326   0.96973   0.00187   0.00000  Uiso   1.00
H4     H     0.08317   0.04367   0.00156   0.00000  Uiso   1.00
H5     H     0.96925   0.08394   0.00184   0.00000  Uiso   1.00
H6     H     0.04319   0.08373   0.00155   0.00000  Uiso   1.00
H7     H     0.92950   0.97024   0.00254   0.00000  Uiso   1.00
H8     H     0.92942   0.04418   0.00223   0.00000  Uiso   1.00
C33    C     0.89300   0.98654   0.00256   0.00000  Uiso   1.00
C34    C     0.87517   0.99699   0.00255   0.00000  Uiso   1.00
C35    C     0.87516   0.01784   0.00248   0.00000  Uiso   1.00
C36    C     0.89296   0.02816   0.00241   0.00000  Uiso   1.00
C37    C     0.98571   0.89366   0.00259   0.00000  Uiso   1.00
C38    C     0.99613   0.87581   0.00258   0.00000  Uiso   1.00
C39    C     0.01698   0.87576   0.00252   0.00000  Uiso   1.00
C40    C     0.02734   0.89354   0.00245   0.00000  Uiso   1.00
C41    C     0.11972   0.98576   0.00169   0.00000  Uiso   1.00
C42    C     0.13752   0.99608   0.00162   0.00000  Uiso   1.00
C43    C     0.13750   0.01692   0.00155   0.00000  Uiso   1.00
C44    C     0.11967   0.02738   0.00154   0.00000  Uiso   1.00
C45    C     0.98534   0.12037   0.00165   0.00000  Uiso   1.00
C46    C     0.99569   0.13816   0.00158   0.00000  Uiso   1.00
C47    C     0.01654   0.13810   0.00152   0.00000  Uiso   1.00
C48    C     0.02696   0.12026   0.00151   0.00000  Uiso   1.00
H9     H     0.89277   0.97054   0.00261   0.00000  Uiso   1.00
O1     O     0.85724   0.98694   0.00258   0.00000  Uiso   1.00
O2     O     0.85721   0.02803   0.00246   0.00000  Uiso   1.00
H10    H     0.89270   0.04416   0.00235   0.00000  Uiso   1.00
H11    H     0.96972   0.89346   0.00264   0.00000  Uiso   1.00
O3     O     0.98605   0.85790   0.00262   0.00000  Uiso   1.00
O4     O     0.02714   0.85779   0.00251   0.00000  Uiso   1.00
H12    H     0.04333   0.89325   0.00239   0.00000  Uiso   1.00
H13    H     0.11998   0.96976   0.00175   0.00000  Uiso   1.00
O5     O     0.15547   0.98589   0.00164   0.00000  Uiso   1.00
O6     O     0.15543   0.02698   0.00152   0.00000  Uiso   1.00
H14    H     0.11990   0.04337   0.00148   0.00000  Uiso   1.00
H15    H     0.96934   0.12066   0.00171   0.00000  Uiso   1.00
O7     O     0.98553   0.15612   0.00160   0.00000  Uiso   1.00
O8     O     0.02662   0.15602   0.00148   0.00000  Uiso   1.00
H16    H     0.04296   0.12046   0.00146   0.00000  Uiso   1.00
Ni1    Ni    0.00634   0.00696   0.00205   0.00000  Uiso   1.00
C49    C     0.00572   0.41620   0.06436   0.00000  Uiso   1.00
C50    C     0.00581   0.43425   0.03342   0.00000  Uiso   1.00
C51    C     0.00581   0.43425   0.97042   0.00000  Uiso   1.00
C52    C     0.00572   0.41621   0.93941   0.00000  Uiso   1.00
C53    C     0.00565   0.39879   0.97202   0.00000  Uiso   1.00
C54    C     0.00565   0.39879   0.03170   0.00000  Uiso   1.00
C55    C     0.00560   0.37929   0.04873   0.00000  Uiso   1.00
N9     N     0.00558   0.36688   0.00182   0.00000  Uiso   1.00
C56    C     0.00560   0.37929   0.95493   0.00000  Uiso   1.00
N10    N     0.00559   0.37358   0.89866   0.00000  Uiso   1.00
C57    C     0.00557   0.35467   0.88163   0.00000  Uiso   1.00
N11    N     0.00557   0.33890   0.91855   0.00000  Uiso   1.00
C58    C     0.00556   0.32314   0.88160   0.00000  Uiso   1.00
C59    C     0.00555   0.32887   0.82359   0.00000  Uiso   1.00
C60    C     0.00555   0.34893   0.82362   0.00000  Uiso   1.00
N12    N     0.00559   0.31093   0.00175   0.00000  Uiso   1.00
C61    C     0.00560   0.29851   0.95483   0.00000  Uiso   1.00
N13    N     0.00559   0.30423   0.89858   0.00000  Uiso   1.00
C62    C     0.00565   0.27901   0.97187   0.00000  Uiso   1.00
C63    C     0.00566   0.27901   0.03153   0.00000  Uiso   1.00
C64    C     0.00562   0.29851   0.04863   0.00000  Uiso   1.00
C65    C     0.00554   0.35990   0.77180   0.00000  Uiso   1.00
C66    C     0.00553   0.34949   0.71812   0.00000  Uiso   1.00
C67    C     0.00553   0.32831   0.71810   0.00000  Uiso   1.00
C68    C     0.00554   0.31790   0.77176   0.00000  Uiso   1.00
C69    C     0.00573   0.26159   0.06410   0.00000  Uiso   1.00
C70    C     0.00579   0.24354   0.03309   0.00000  Uiso   1.00
C71    C     0.00577   0.24354   0.97021   0.00000  Uiso   1.00
C72    C     0.00570   0.26159   0.93925   0.00000  Uiso   1.00
N14    N     0.00558   0.33890   0.08501   0.00000  Uiso   1.00
C73    C     0.00559   0.32313   0.12193   0.00000  Uiso   1.00
N15    N     0.00561   0.30422   0.10490   0.00000  Uiso   1.00
C74    C     0.00557   0.32886   0.17994   0.00000  Uiso   1.00
C75    C     0.00557   0.34892   0.17997   0.00000  Uiso   1.00
C76    C     0.00558   0.35466   0.12197   0.00000  Uiso   1.00
C77    C     0.00555   0.35989   0.23180   0.00000  Uiso   1.00
C78    C     0.00554   0.34948   0.28547   0.00000  Uiso   1.00
C79    C     0.00555   0.32831   0.28544   0.00000  Uiso   1.00
C80    C     0.00556   0.31790   0.23176   0.00000  Uiso   1.00
N16    N     0.00560   0.37357   0.10499   0.00000  Uiso   1.00
H17    H     0.00573   0.41577   0.11193   0.00000  Uiso   1.00
H18    H     0.00573   0.41578   0.89184   0.00000  Uiso   1.00
H19    H     0.00554   0.37589   0.77310   0.00000  Uiso   1.00
H20    H     0.00554   0.30192   0.77303   0.00000  Uiso   1.00
H21    H     0.00574   0.26202   0.11168   0.00000  Uiso   1.00
H22    H     0.00569   0.26203   0.89168   0.00000  Uiso   1.00
H23    H     0.00555   0.37588   0.23054   0.00000  Uiso   1.00
H24    H     0.00557   0.30191   0.23046   0.00000  Uiso   1.00
C81    C     0.00553   0.35970   0.33919   0.00000  Uiso   1.00
C82    C     0.00551   0.34904   0.39167   0.00000  Uiso   1.00
C83    C     0.00552   0.32875   0.39165   0.00000  Uiso   1.00
C84    C     0.00553   0.31809   0.33914   0.00000  Uiso   1.00
C85    C     0.00591   0.45230   0.06384   0.00000  Uiso   1.00
C86    C     0.00603   0.46994   0.03216   0.00000  Uiso   1.00
C87    C     0.00603   0.46995   0.97180   0.00000  Uiso   1.00
C88    C     0.00591   0.45231   0.94006   0.00000  Uiso   1.00
C89    C     0.00551   0.35970   0.66441   0.00000  Uiso   1.00
C90    C     0.00550   0.34904   0.61191   0.00000  Uiso   1.00
C91    C     0.00551   0.32876   0.61189   0.00000  Uiso   1.00
C92    C     0.00552   0.31810   0.66438   0.00000  Uiso   1.00
C93    C     0.00587   0.22554   0.06355   0.00000  Uiso   1.00
C94    C     0.00594   0.20773   0.03261   0.00000  Uiso   1.00
C95    C     0.00592   0.20773   0.97059   0.00000  Uiso   1.00
C96    C     0.00584   0.22555   0.93971   0.00000  Uiso   1.00
H25    H     0.00552   0.37569   0.34037   0.00000  Uiso   1.00
O9     O     0.00550   0.35802   0.44615   0.00000  Uiso   1.00
O10    O     0.00550   0.31977   0.44612   0.00000  Uiso   1.00
H26    H     0.00554   0.30210   0.34030   0.00000  Uiso   1.00
H27    H     0.00592   0.45269   0.11142   0.00000  Uiso   1.00
O11    O     0.00615   0.48825   0.05891   0.00000  Uiso   1.00
O12    O     0.00615   0.48826   0.94513   0.00000  Uiso   1.00
H28    H     0.00592   0.45270   0.89249   0.00000  Uiso   1.00
H29    H     0.00551   0.37569   0.66325   0.00000  Uiso   1.00
O13    O     0.00549   0.35802   0.55744   0.00000  Uiso   1.00
O14    O     0.00550   0.31978   0.55741   0.00000  Uiso   1.00
H30    H     0.00552   0.30211   0.66319   0.00000  Uiso   1.00
H31    H     0.00589   0.22529   0.11113   0.00000  Uiso   1.00
O15    O     0.00602   0.18978   0.06270   0.00000  Uiso   1.00
O16    O     0.00597   0.18979   0.94045   0.00000  Uiso   1.00
H32    H     0.00582   0.22530   0.89212   0.00000  Uiso   1.00
Ni2    Ni    0.00558   0.33890   0.00178   0.00000  Uiso   1.00
C97    C     0.69539   0.00816   0.23232   0.00000  Uiso   1.00
C98    C     0.68498   0.00816   0.28598   0.00000  Uiso   1.00
C99    C     0.66380   0.00815   0.28597   0.00000  Uiso   1.00
C100   C     0.65339   0.00812   0.23228   0.00000  Uiso   1.00
C101   C     0.66436   0.00812   0.18046   0.00000  Uiso   1.00
C102   C     0.68442   0.00814   0.18048   0.00000  Uiso   1.00
C103   C     0.69015   0.00813   0.12248   0.00000  Uiso   1.00
N17    N     0.67439   0.00811   0.08553   0.00000  Uiso   1.00
C104   C     0.65862   0.00810   0.12245   0.00000  Uiso   1.00
N18    N     0.63971   0.00805   0.10542   0.00000  Uiso   1.00
C105   C     0.63400   0.00803   0.04915   0.00000  Uiso   1.00
N19    N     0.64642   0.00807   0.00227   0.00000  Uiso   1.00
C106   C     0.63400   0.00803   0.95535   0.00000  Uiso   1.00
C107   C     0.61450   0.00795   0.97239   0.00000  Uiso   1.00
C108   C     0.61450   0.00795   0.03207   0.00000  Uiso   1.00
N20    N     0.67439   0.00809   0.91907   0.00000  Uiso   1.00
C109   C     0.65863   0.00809   0.88212   0.00000  Uiso   1.00
N21    N     0.63972   0.00804   0.89910   0.00000  Uiso   1.00
C110   C     0.66437   0.00810   0.82411   0.00000  Uiso   1.00
C111   C     0.68443   0.00812   0.82413   0.00000  Uiso   1.00
C112   C     0.69016   0.00810   0.88215   0.00000  Uiso   1.00
C113   C     0.59708   0.00784   0.06468   0.00000  Uiso   1.00
C114   C     0.57904   0.00771   0.03368   0.00000  Uiso   1.00
C115   C     0.57905   0.00771   0.97067   0.00000  Uiso   1.00
C116   C     0.59709   0.00784   0.93973   0.00000  Uiso   1.00
C117   C     0.69539   0.00813   0.77232   0.00000  Uiso   1.00
C118   C     0.68498   0.00814   0.71863   0.00000  Uiso   1.00
C119   C     0.66381   0.00813   0.71861   0.00000  Uiso   1.00
C120   C     0.65340   0.00811   0.77228   0.00000  Uiso   1.00
N22    N     0.70236   0.00811   0.00233   0.00000  Uiso   1.00
C121   C     0.71478   0.00808   0.95544   0.00000  Uiso   1.00
N23    N     0.70907   0.00809   0.89918   0.00000  Uiso   1.00
C122   C     0.73428   0.00804   0.97254   0.00000  Uiso   1.00
C123   C     0.73428   0.00805   0.03220   0.00000  Uiso   1.00
C124   C     0.71478   0.00810   0.04924   0.00000  Uiso   1.00
C125   C     0.75170   0.00799   0.06482   0.00000  Uiso   1.00
C126   C     0.76975   0.00791   0.03386   0.00000  Uiso   1.00
C127   C     0.76975   0.00789   0.97097   0.00000  Uiso   1.00
C128   C     0.75171   0.00796   0.93997   0.00000  Uiso   1.00
N24    N     0.70906   0.00811   0.10550   0.00000  Uiso   1.00
H33    H     0.71138   0.00817   0.23105   0.00000  Uiso   1.00
H34    H     0.63740   0.00811   0.23099   0.00000  Uiso   1.00
H35    H     0.59751   0.00784   0.11225   0.00000  Uiso   1.00
H36    H     0.59752   0.00783   0.89216   0.00000  Uiso   1.00
H37    H     0.71138   0.00814   0.77362   0.00000  Uiso   1.00
H38    H     0.63741   0.00810   0.77355   0.00000  Uiso   1.00
H39    H     0.75126   0.00800   0.11239   0.00000  Uiso   1.00
H40    H     0.75127   0.00794   0.89239   0.00000  Uiso   1.00
C129   C     0.78775   0.00783   0.06436   0.00000  Uiso   1.00
C130   C     0.80556   0.00772   0.03347   0.00000  Uiso   1.00
C131   C     0.80557   0.00770   0.97145   0.00000  Uiso   1.00
C132   C     0.78775   0.00779   0.94052   0.00000  Uiso   1.00
C133   C     0.69519   0.00818   0.33970   0.00000  Uiso   1.00
C134   C     0.68453   0.00818   0.39219   0.00000  Uiso   1.00
C135   C     0.66425   0.00817   0.39218   0.00000  Uiso   1.00
C136   C     0.65359   0.00815   0.33967   0.00000  Uiso   1.00
C137   C     0.56099   0.00755   0.06404   0.00000  Uiso   1.00
C138   C     0.54334   0.00738   0.03229   0.00000  Uiso   1.00
C139   C     0.54335   0.00738   0.97193   0.00000  Uiso   1.00
C140   C     0.56100   0.00755   0.94025   0.00000  Uiso   1.00
C141   C     0.69520   0.00816   0.66493   0.00000  Uiso   1.00
C142   C     0.68454   0.00817   0.61242   0.00000  Uiso   1.00
C143   C     0.66425   0.00815   0.61241   0.00000  Uiso   1.00
C144   C     0.65359   0.00814   0.66490   0.00000  Uiso   1.00
H41    H     0.78799   0.00784   0.11195   0.00000  Uiso   1.00
O17    O     0.82350   0.00765   0.06361   0.00000  Uiso   1.00
O18    O     0.82351   0.00760   0.94136   0.00000  Uiso   1.00
H42    H     0.78800   0.00777   0.89293   0.00000  Uiso   1.00
H43    H     0.71118   0.00819   0.34088   0.00000  Uiso   1.00
O19    O     0.69351   0.00819   0.44666   0.00000  Uiso   1.00
O20    O     0.65527   0.00816   0.44664   0.00000  Uiso   1.00
H44    H     0.63760   0.00814   0.34083   0.00000  Uiso   1.00
H45    H     0.56059   0.00754   0.11161   0.00000  Uiso   1.00
O21    O     0.52504   0.00720   0.05897   0.00000  Uiso   1.00
O22    O     0.52505   0.00719   0.94519   0.00000  Uiso   1.00
H46    H     0.56061   0.00754   0.89268   0.00000  Uiso   1.00
H47    H     0.71119   0.00817   0.66377   0.00000  Uiso   1.00
O23    O     0.69352   0.00818   0.55796   0.00000  Uiso   1.00
O24    O     0.65527   0.00816   0.55793   0.00000  Uiso   1.00
H48    H     0.63760   0.00813   0.66371   0.00000  Uiso   1.00
Ni3    Ni    0.67439   0.00809   0.00230   0.00000  Uiso   1.00
C145   C     0.00690   0.59771   0.93974   0.00000  Uiso   1.00
C146   C     0.00681   0.57967   0.97068   0.00000  Uiso   1.00
C147   C     0.00681   0.57966   0.03369   0.00000  Uiso   1.00
C148   C     0.00690   0.59770   0.06469   0.00000  Uiso   1.00
C149   C     0.00698   0.61512   0.03209   0.00000  Uiso   1.00
C150   C     0.00698   0.61513   0.97240   0.00000  Uiso   1.00
C151   C     0.00702   0.63462   0.95537   0.00000  Uiso   1.00
N25    N     0.00705   0.64704   0.00229   0.00000  Uiso   1.00
C152   C     0.00703   0.63462   0.04918   0.00000  Uiso   1.00
N26    N     0.00704   0.64033   0.10544   0.00000  Uiso   1.00
C153   C     0.00707   0.65924   0.12247   0.00000  Uiso   1.00
N27    N     0.00706   0.67501   0.08555   0.00000  Uiso   1.00
C154   C     0.00707   0.69077   0.12251   0.00000  Uiso   1.00
C155   C     0.00709   0.68504   0.18051   0.00000  Uiso   1.00
C156   C     0.00708   0.66498   0.18049   0.00000  Uiso   1.00
N28    N     0.00705   0.70299   0.00236   0.00000  Uiso   1.00
C157   C     0.00704   0.71540   0.04927   0.00000  Uiso   1.00
N29    N     0.00705   0.70968   0.10553   0.00000  Uiso   1.00
C158   C     0.00700   0.73490   0.03223   0.00000  Uiso   1.00
C159   C     0.00698   0.73490   0.97257   0.00000  Uiso   1.00
C160   C     0.00702   0.71540   0.95548   0.00000  Uiso   1.00
C161   C     0.00709   0.65401   0.23231   0.00000  Uiso   1.00
C162   C     0.00710   0.66442   0.28599   0.00000  Uiso   1.00
C163   C     0.00711   0.68560   0.28601   0.00000  Uiso   1.00
C164   C     0.00710   0.69601   0.23235   0.00000  Uiso   1.00
C165   C     0.00692   0.75233   0.94000   0.00000  Uiso   1.00
C166   C     0.00686   0.77037   0.97101   0.00000  Uiso   1.00
C167   C     0.00688   0.77037   0.03389   0.00000  Uiso   1.00
C168   C     0.00695   0.75232   0.06485   0.00000  Uiso   1.00
N30    N     0.00705   0.67502   0.91910   0.00000  Uiso   1.00
C169   C     0.00705   0.69078   0.88218   0.00000  Uiso   1.00
N31    N     0.00703   0.70969   0.89921   0.00000  Uiso   1.00
C170   C     0.00707   0.68505   0.82416   0.00000  Uiso   1.00
C171   C     0.00707   0.66499   0.82414   0.00000  Uiso   1.00
C172   C     0.00706   0.65925   0.88214   0.00000  Uiso   1.00
C173   C     0.00708   0.65402   0.77230   0.00000  Uiso   1.00
C174   C     0.00709   0.66443   0.71864   0.00000  Uiso   1.00
C175   C     0.00709   0.68561   0.71866   0.00000  Uiso   1.00
C176   C     0.00708   0.69602   0.77235   0.00000  Uiso   1.00
N32    N     0.00703   0.64034   0.89912   0.00000  Uiso   1.00
H49    H     0.00689   0.59814   0.89217   0.00000  Uiso   1.00
H50    H     0.00690   0.59813   0.11226   0.00000  Uiso   1.00
H51    H     0.00709   0.63802   0.23101   0.00000  Uiso   1.00
H52    H     0.00710   0.71200   0.23108   0.00000  Uiso   1.00
H53    H     0.00691   0.75189   0.89243   0.00000  Uiso   1.00
H54    H     0.00696   0.75189   0.11242   0.00000  Uiso   1.00
H55    H     0.00708   0.63803   0.77357   0.00000  Uiso   1.00
H56    H     0.00707   0.71201   0.77365   0.00000  Uiso   1.00
C177   C     0.00710   0.65421   0.66492   0.00000  Uiso   1.00
C178   C     0.00711   0.66487   0.61243   0.00000  Uiso   1.00
C179   C     0.00711   0.68516   0.61245   0.00000  Uiso   1.00
C180   C     0.00710   0.69582   0.66496   0.00000  Uiso   1.00
C181   C     0.00670   0.56162   0.94026   0.00000  Uiso   1.00
C182   C     0.00658   0.54397   0.97194   0.00000  Uiso   1.00
C183   C     0.00659   0.54396   0.03230   0.00000  Uiso   1.00
C184   C     0.00670   0.56161   0.06405   0.00000  Uiso   1.00
C185   C     0.00711   0.65421   0.33969   0.00000  Uiso   1.00
C186   C     0.00712   0.66487   0.39220   0.00000  Uiso   1.00
C187   C     0.00712   0.68516   0.39222   0.00000  Uiso   1.00
C188   C     0.00712   0.69581   0.33973   0.00000  Uiso   1.00
C189   C     0.00678   0.78837   0.94056   0.00000  Uiso   1.00
C190   C     0.00673   0.80619   0.97149   0.00000  Uiso   1.00
C191   C     0.00675   0.80618   0.03351   0.00000  Uiso   1.00
C192   C     0.00682   0.78837   0.06439   0.00000  Uiso   1.00
H57    H     0.00710   0.63823   0.66373   0.00000  Uiso   1.00
O25    O     0.00712   0.65589   0.55796   0.00000  Uiso   1.00
O26    O     0.00712   0.69414   0.55799   0.00000  Uiso   1.00
H58    H     0.00710   0.71181   0.66380   0.00000  Uiso   1.00
H59    H     0.00669   0.56123   0.89269   0.00000  Uiso   1.00
O27    O     0.00645   0.52567   0.94520   0.00000  Uiso   1.00
O28    O     0.00646   0.52565   0.05898   0.00000  Uiso   1.00
H60    H     0.00670   0.56121   0.11162   0.00000  Uiso   1.00
H61    H     0.00711   0.63822   0.34085   0.00000  Uiso   1.00
O29    O     0.00713   0.65589   0.44666   0.00000  Uiso   1.00
O30    O     0.00713   0.69414   0.44669   0.00000  Uiso   1.00
H62    H     0.00712   0.71180   0.34092   0.00000  Uiso   1.00
H63    H     0.00677   0.78862   0.89297   0.00000  Uiso   1.00
O31    O     0.00665   0.82413   0.94140   0.00000  Uiso   1.00
O32    O     0.00670   0.82412   0.06365   0.00000  Uiso   1.00
H64    H     0.00683   0.78861   0.11198   0.00000  Uiso   1.00
Ni4    Ni    0.00705   0.67501   0.00232   0.00000  Uiso   1.00
C193   C     0.31729   0.00581   0.77178   0.00000  Uiso   1.00
C194   C     0.32770   0.00581   0.71812   0.00000  Uiso   1.00
C195   C     0.34888   0.00583   0.71814   0.00000  Uiso   1.00
C196   C     0.35929   0.00585   0.77182   0.00000  Uiso   1.00
C197   C     0.34832   0.00585   0.82364   0.00000  Uiso   1.00
C198   C     0.32826   0.00583   0.82362   0.00000  Uiso   1.00
C199   C     0.32252   0.00584   0.88162   0.00000  Uiso   1.00
N33    N     0.33829   0.00587   0.91857   0.00000  Uiso   1.00
C200   C     0.35405   0.00588   0.88165   0.00000  Uiso   1.00
N34    N     0.37296   0.00593   0.89868   0.00000  Uiso   1.00
C201   C     0.37868   0.00595   0.95495   0.00000  Uiso   1.00
N35    N     0.36626   0.00591   0.00183   0.00000  Uiso   1.00
C202   C     0.37867   0.00595   0.04875   0.00000  Uiso   1.00
C203   C     0.39817   0.00603   0.03171   0.00000  Uiso   1.00
C204   C     0.39817   0.00602   0.97203   0.00000  Uiso   1.00
N36    N     0.33828   0.00588   0.08503   0.00000  Uiso   1.00
C205   C     0.35404   0.00589   0.12199   0.00000  Uiso   1.00
N37    N     0.37295   0.00593   0.10500   0.00000  Uiso   1.00
C206   C     0.34831   0.00587   0.17999   0.00000  Uiso   1.00
C207   C     0.32825   0.00585   0.17997   0.00000  Uiso   1.00
C208   C     0.32252   0.00586   0.12195   0.00000  Uiso   1.00
C209   C     0.41560   0.00614   0.93943   0.00000  Uiso   1.00
C210   C     0.43363   0.00627   0.97043   0.00000  Uiso   1.00
C211   C     0.43363   0.00627   0.03343   0.00000  Uiso   1.00
C212   C     0.41559   0.00614   0.06437   0.00000  Uiso   1.00
C213   C     0.31728   0.00583   0.23178   0.00000  Uiso   1.00
C214   C     0.32769   0.00583   0.28547   0.00000  Uiso   1.00
C215   C     0.34887   0.00585   0.28549   0.00000  Uiso   1.00
C216   C     0.35928   0.00587   0.23182   0.00000  Uiso   1.00
N38    N     0.31031   0.00586   0.00177   0.00000  Uiso   1.00
C217   C     0.29789   0.00588   0.04866   0.00000  Uiso   1.00
N39    N     0.30361   0.00588   0.10492   0.00000  Uiso   1.00
C218   C     0.27840   0.00591   0.03156   0.00000  Uiso   1.00
C219   C     0.27840   0.00590   0.97190   0.00000  Uiso   1.00
C220   C     0.29790   0.00586   0.95486   0.00000  Uiso   1.00
C221   C     0.26097   0.00595   0.93928   0.00000  Uiso   1.00
C222   C     0.24293   0.00603   0.97025   0.00000  Uiso   1.00
C223   C     0.24292   0.00605   0.03313   0.00000  Uiso   1.00
C224   C     0.26097   0.00598   0.06413   0.00000  Uiso   1.00
N40    N     0.30361   0.00585   0.89860   0.00000  Uiso   1.00
H65    H     0.30130   0.00579   0.77305   0.00000  Uiso   1.00
H66    H     0.37528   0.00587   0.77311   0.00000  Uiso   1.00
H67    H     0.41517   0.00614   0.89185   0.00000  Uiso   1.00
H68    H     0.41515   0.00615   0.11195   0.00000  Uiso   1.00
H69    H     0.30129   0.00582   0.23048   0.00000  Uiso   1.00
H70    H     0.37527   0.00588   0.23056   0.00000  Uiso   1.00
H71    H     0.26141   0.00595   0.89171   0.00000  Uiso   1.00
H72    H     0.26140   0.00600   0.11171   0.00000  Uiso   1.00
C225   C     0.22493   0.00611   0.93974   0.00000  Uiso   1.00
C226   C     0.20711   0.00620   0.97063   0.00000  Uiso   1.00
C227   C     0.20711   0.00622   0.03265   0.00000  Uiso   1.00
C228   C     0.22492   0.00615   0.06358   0.00000  Uiso   1.00
C229   C     0.31748   0.00578   0.66440   0.00000  Uiso   1.00
C230   C     0.32814   0.00578   0.61191   0.00000  Uiso   1.00
C231   C     0.34843   0.00580   0.61193   0.00000  Uiso   1.00
C232   C     0.35909   0.00582   0.66443   0.00000  Uiso   1.00
C233   C     0.45169   0.00642   0.94007   0.00000  Uiso   1.00
C234   C     0.46933   0.00659   0.97181   0.00000  Uiso   1.00
C235   C     0.46933   0.00659   0.03217   0.00000  Uiso   1.00
C236   C     0.45168   0.00643   0.06385   0.00000  Uiso   1.00
C237   C     0.31748   0.00580   0.33917   0.00000  Uiso   1.00
C238   C     0.32814   0.00580   0.39168   0.00000  Uiso   1.00
C239   C     0.34842   0.00582   0.39169   0.00000  Uiso   1.00
C240   C     0.35908   0.00584   0.33920   0.00000  Uiso   1.00
H73    H     0.22468   0.00609   0.89215   0.00000  Uiso   1.00
O33    O     0.18917   0.00627   0.94049   0.00000  Uiso   1.00
O34    O     0.18917   0.00632   0.06274   0.00000  Uiso   1.00
H74    H     0.22467   0.00616   0.11117   0.00000  Uiso   1.00
H75    H     0.30149   0.00577   0.66322   0.00000  Uiso   1.00
O35    O     0.31916   0.00577   0.55744   0.00000  Uiso   1.00
O36    O     0.35741   0.00580   0.55746   0.00000  Uiso   1.00
H76    H     0.37508   0.00584   0.66327   0.00000  Uiso   1.00
H77    H     0.45209   0.00643   0.89250   0.00000  Uiso   1.00
O37    O     0.48764   0.00677   0.94513   0.00000  Uiso   1.00
O38    O     0.48763   0.00677   0.05891   0.00000  Uiso   1.00
H78    H     0.45207   0.00643   0.11142   0.00000  Uiso   1.00
H79    H     0.30149   0.00579   0.34033   0.00000  Uiso   1.00
O39    O     0.31916   0.00577   0.44614   0.00000  Uiso   1.00
O40    O     0.35740   0.00581   0.44617   0.00000  Uiso   1.00
H80    H     0.37507   0.00585   0.34039   0.00000  Uiso   1.00
Ni5    Ni    0.33828   0.00588   0.00180   0.00000  Uiso   1.00
Cu1    Cu    0.00630   0.50696   0.00205   0.00000  Uiso   1.00
Cu2    Cu    0.50634   0.00698   0.00205   0.00000  Uiso   1.00
Zn1    Zn    0.00604   0.17293   0.00156   0.00000  Uiso   1.00
Zn2    Zn    0.84036   0.00755   0.00251   0.00000  Uiso   1.00
Zn3    Zn    0.00663   0.84099   0.00255   0.00000  Uiso   1.00
Zn4    Zn    0.17231   0.00637   0.00159   0.00000  Uiso   1.00
Cu3    Cu    0.00549   0.33890   0.50178   0.00000  Uiso   1.00
Cu4    Cu    0.67439   0.00817   0.50230   0.00000  Uiso   1.00
Cu5    Cu    0.00712   0.67501   0.50232   0.00000  Uiso   1.00
Cu6    Cu    0.33828   0.00578   0.50180   0.00000  Uiso   1.00
loop_
_geom_bond_atom_site_label_1
_geom_bond_atom_site_label_2
_geom_bond_distance
_geom_bond_site_symmetry_2
_ccdc_geom_bond_type
C1     C2      1.412   .     A
C1     C6      1.394   .     A
C1     H1      1.084   .     S
C2     C3      1.432   1_655 A
C2     C37     1.403   .     A
C3     C2      1.432   1_455 A
C3     C4      1.411   .     A
C3     C40     1.403   .     A
C4     C5      1.394   .     A
C4     H2      1.084   .     S
C5     C6      1.358   1_455 A
C5     C8      1.377   .     A
C6     C5      1.358   1_655 A
C6     C7      1.377   .     A
C7     N1      1.359   1_655 A
C7     N8      1.338   .     A
N1     C7      1.359   1_455 A
N1     C8      1.359   .     A
N1     Ni1     1.895   1_565 S
C8     N2      1.338   .     A
N2     C9      1.338   .     A
C9     N3      1.359   1_565 A
C9     C12     1.377   .     A
N3     C9      1.359   1_545 A
N3     C10     1.359   .     A
N3     Ni1     1.895   .     S
C10    C11     1.377   .     A
C10    N5      1.338   .     A
C11    C12     1.358   1_545 A
C11    C20     1.394   .     A
C12    C11     1.358   1_565 A
C12    C17     1.394   .     A
N4     C13     1.359   .     A
N4     C16     1.359   1_455 A
N4     Ni1     1.895   .     S
C13    N5      1.338   .     A
C13    C14     1.377   .     A
C14    C15     1.358   1_455 A
C14    C24     1.394   .     A
C15    C14     1.358   1_655 A
C15    C16     1.377   .     A
C15    C21     1.394   .     A
C16    N4      1.359   1_655 A
C16    N7      1.338   .     A
C17    C18     1.411   .     A
C17    H3      1.084   .     S
C18    C19     1.432   1_565 A
C18    C41     1.403   .     A
C19    C18     1.432   1_545 A
C19    C20     1.412   .     A
C19    C44     1.403   .     A
C20    H4      1.084   .     S
C21    C22     1.411   .     A
C21    H5      1.084   .     S
C22    C23     1.432   1_655 A
C22    C45     1.403   .     A
C23    C22     1.432   1_455 A
C23    C24     1.412   .     A
C23    C48     1.403   .     A
C24    H6      1.084   .     S
N6     C25     1.359   .     A
N6     C28     1.359   1_545 A
N6     Ni1     1.895   1_655 S
C25    N7      1.338   .     A
C25    C26     1.377   .     A
C26    C27     1.358   1_545 A
C26    C32     1.394   .     A
C27    C26     1.358   1_565 A
C27    C28     1.377   .     A
C27    C29     1.394   .     A
C28    N6      1.359   1_565 A
C28    N8      1.338   .     A
C29    C30     1.412   .     A
C29    H7      1.084   .     S
C30    C31     1.432   1_565 A
C30    C33     1.403   .     A
C31    C30     1.432   1_545 A
C31    C32     1.411   .     A
C31    C36     1.403   .     A
C32    H8      1.084   .     S
C33    C34     1.397   .     A
C33    H9      1.084   .     S
C34    C35     1.412   1_565 A
C34    O1      1.395   .     S
C35    C34     1.412   1_545 A
C35    C36     1.397   .     A
C35    O2      1.395   .     S
C36    H10     1.084   .     S
C37    C38     1.397   .     A
C37    H11     1.084   .     S
C38    C39     1.412   1_655 A
C38    O3      1.395   .     S
C39    C38     1.412   1_455 A
C39    C40     1.397   .     A
C39    O4      1.395   .     S
C40    H12     1.084   .     S
C41    C42     1.397   .     A
C41    H13     1.084   .     S
C42    C43     1.412   1_565 A
C42    O5      1.395   .     S
C43    C42     1.412   1_545 A
C43    C44     1.397   .     A
C43    O6      1.395   .     S
C44    H14     1.084   .     S
C45    C46     1.397   .     A
C45    H15     1.084   .     S
C46    C47     1.412   1_655 A
C46    O7      1.395   .     S
C47    C46     1.412   1_455 A
C47    C48     1.397   .     A
C47    O8      1.395   .     S
C48    H16     1.084   .     S
O1     Zn2     1.800   1_565 S
O2     Zn2     1.800   .     S
O3     Zn3     1.800   1_655 S
O4     Zn3     1.800   .     S
O5     Zn4     1.800   1_565 S
O6     Zn4     1.800   .     S
O7     Zn1     1.800   1_655 S
O8     Zn1     1.800   .     S
Ni1    N6      1.895   1_455 S
Ni1    N1      1.895   1_545 S
C49    C50     1.411   .     A
C49    C54     1.394   .     A
C49    H17     1.084   .     S
C50    C51     1.435   1_554 A
C50    C85     1.405   .     A
C51    C50     1.435   1_556 A
C51    C52     1.411   .     A
C51    C88     1.405   .     A
C52    C53     1.395   .     A
C52    H18     1.084   .     S
C53    C54     1.359   1_556 A
C53    C56     1.377   .     A
C54    C53     1.359   1_554 A
C54    C55     1.377   .     A
C55    N9      1.359   .     A
C55    N16     1.338   .     A
N9     C56     1.359   1_554 A
N9     Ni2     1.895   .     S
C56    N9      1.359   1_556 A
C56    N10     1.338   .     A
N10    C57     1.338   .     A
C57    N11     1.359   .     A
C57    C60     1.377   .     A
N11    C58     1.359   .     A
N11    Ni2     1.895   1_556 S
C58    C59     1.377   .     A
C58    N13     1.338   .     A
C59    C60     1.359   .     A
C59    C68     1.394   .     A
C60    C65     1.394   .     A
N12    C61     1.359   1_554 A
N12    C64     1.359   .     A
N12    Ni2     1.895   .     S
C61    N12     1.359   1_556 A
C61    N13     1.338   .     A
C61    C62     1.377   .     A
C62    C63     1.358   1_556 A
C62    C72     1.394   .     A
C63    C62     1.358   1_554 A
C63    C64     1.377   .     A
C63    C69     1.394   .     A
C64    N15     1.338   .     A
C65    C66     1.411   .     A
C65    H19     1.084   .     S
C66    C67     1.435   .     A
C66    C89     1.405   .     A
C67    C68     1.411   .     A
C67    C92     1.405   .     A
C68    H20     1.084   .     S
C69    C70     1.412   .     A
C69    H21     1.084   .     S
C70    C71     1.432   1_554 A
C70    C93     1.403   .     A
C71    C70     1.432   1_556 A
C71    C72     1.411   .     A
C71    C96     1.403   .     A
C72    H22     1.084   .     S
N14    C73     1.359   .     A
N14    C76     1.359   .     A
N14    Ni2     1.895   .     S
C73    N15     1.338   .     A
C73    C74     1.377   .     A
C74    C75     1.359   .     A
C74    C80     1.394   .     A
C75    C76     1.377   .     A
C75    C77     1.394   .     A
C76    N16     1.338   .     A
C77    C78     1.411   .     A
C77    H23     1.084   .     S
C78    C79     1.435   .     A
C78    C81     1.405   .     A
C79    C80     1.411   .     A
C79    C84     1.405   .     A
C80    H24     1.084   .     S
C81    C82     1.396   .     A
C81    H25     1.083   .     S
C82    C83     1.374   .     A
C82    O9      1.381   .     S
C83    C84     1.396   .     A
C83    O10     1.381   .     S
C84    H26     1.083   .     S
C85    C86     1.396   .     A
C85    H27     1.083   .     S
C86    C87     1.374   1_554 A
C86    O11     1.381   .     S
C87    C86     1.374   1_556 A
C87    C88     1.397   .     A
C87    O12     1.381   .     S
C88    H28     1.083   .     S
C89    C90     1.396   .     A
C89    H29     1.083   .     S
C90    C91     1.374   .     A
C90    O13     1.381   .     S
C91    C92     1.396   .     A
C91    O14     1.381   .     S
C92    H30     1.083   .     S
C93    C94     1.397   .     A
C93    H31     1.084   .     S
C94    C95     1.412   1_554 A
C94    O15     1.395   .     S
C95    C94     1.412   1_556 A
C95    C96     1.397   .     A
C95    O16     1.395   .     S
C96    H32     1.084   .     S
O9     Cu3     1.812   .     S
O10    Cu3     1.812   .     S
O11    Cu1     1.812   .     S
O12    Cu1     1.812   1_556 S
O13    Cu3     1.812   .     S
O14    Cu3     1.812   .     S
O15    Zn1     1.800   .     S
O16    Zn1     1.800   1_556 S
Ni2    N11     1.895   1_554 S
C97    C98     1.411   .     A
C97    C102    1.394   .     A
C97    H33     1.084   .     S
C98    C99     1.435   .     A
C98    C133    1.405   .     A
C99    C100    1.411   .     A
C99    C136    1.405   .     A
C100   C101    1.394   .     A
C100   H34     1.084   .     S
C101   C102    1.359   .     A
C101   C104    1.377   .     A
C102   C103    1.377   .     A
C103   N17     1.359   .     A
C103   N24     1.338   .     A
N17    C104    1.359   .     A
N17    Ni3     1.895   .     S
C104   N18     1.338   .     A
N18    C105    1.338   .     A
C105   N19     1.359   .     A
C105   C108    1.377   .     A
N19    C106    1.359   1_554 A
N19    Ni3     1.895   .     S
C106   N19     1.359   1_556 A
C106   C107    1.377   .     A
C106   N21     1.338   .     A
C107   C108    1.359   1_556 A
C107   C116    1.394   .     A
C108   C107    1.359   1_554 A
C108   C113    1.395   .     A
N20    C109    1.359   .     A
N20    C112    1.359   .     A
N20    Ni3     1.895   1_556 S
C109   N21     1.338   .     A
C109   C110    1.377   .     A
C110   C111    1.359   .     A
C110   C120    1.394   .     A
C111   C112    1.377   .     A
C111   C117    1.394   .     A
C112   N23     1.338   .     A
C113   C114    1.411   .     A
C113   H35     1.084   .     S
C114   C115    1.435   1_554 A
C114   C137    1.405   .     A
C115   C114    1.435   1_556 A
C115   C116    1.411   .     A
C115   C140    1.405   .     A
C116   H36     1.084   .     S
C117   C118    1.411   .     A
C117   H37     1.084   .     S
C118   C119    1.435   .     A
C118   C141    1.405   .     A
C119   C120    1.411   .     A
C119   C144    1.405   .     A
C120   H38     1.084   .     S
N22    C121    1.359   1_554 A
N22    C124    1.359   .     A
N22    Ni3     1.895   .     S
C121   N22     1.359   1_556 A
C121   N23     1.338   .     A
C121   C122    1.377   .     A
C122   C123    1.358   1_556 A
C122   C128    1.394   .     A
C123   C122    1.358   1_554 A
C123   C124    1.377   .     A
C123   C125    1.394   .     A
C124   N24     1.338   .     A
C125   C126    1.411   .     A
C125   H39     1.084   .     S
C126   C127    1.432   1_554 A
C126   C129    1.403   .     A
C127   C126    1.432   1_556 A
C127   C128    1.412   .     A
C127   C132    1.403   .     A
C128   H40     1.084   .     S
C129   C130    1.397   .     A
C129   H41     1.084   .     S
C130   C131    1.412   1_554 A
C130   O17     1.395   .     S
C131   C130    1.412   1_556 A
C131   C132    1.397   .     A
C131   O18     1.395   .     S
C132   H42     1.084   .     S
C133   C134    1.396   .     A
C133   H43     1.083   .     S
C134   C135    1.374   .     A
C134   O19     1.381   .     S
C135   C136    1.396   .     A
C135   O20     1.381   .     S
C136   H44     1.083   .     S
C137   C138    1.397   .     A
C137   H45     1.083   .     S
C138   C139    1.374   1_554 A
C138   O21     1.381   .     S
C139   C138    1.374   1_556 A
C139   C140    1.396   .     A
C139   O22     1.381   .     S
C140   H46     1.083   .     S
C141   C142    1.396   .     A
C141   H47     1.083   .     S
C142   C143    1.374   .     A
C142   O23     1.381   .     S
C143   C144    1.396   .     A
C143   O24     1.381   .     S
C144   H48     1.083   .     S
O17    Zn2     1.800   .     S
O18    Zn2     1.800   1_556 S
O19    Cu4     1.812   .     S
O20    Cu4     1.812   .     S
O21    Cu2     1.812   .     S
O22    Cu2     1.812   1_556 S
O23    Cu4     1.812   .     S
O24    Cu4     1.812   .     S
Ni3    N20     1.895   1_554 S
C145   C146    1.411   .     A
C145   C150    1.394   .     A
C145   H49     1.084   .     S
C146   C147    1.435   1_556 A
C146   C181    1.405   .     A
C147   C146    1.435   1_554 A
C147   C148    1.411   .     A
C147   C184    1.405   .     A
C148   C149    1.395   .     A
C148   H50     1.084   .     S
C149   C150    1.359   1_554 A
C149   C152    1.377   .     A
C150   C149    1.359   1_556 A
C150   C151    1.377   .     A
C151   N25     1.359   1_556 A
C151   N32     1.338   .     A
N25    C151    1.359   1_554 A
N25    C152    1.359   .     A
N25    Ni4     1.895   .     S
C152   N26     1.338   .     A
N26    C153    1.338   .     A
C153   N27     1.359   .     A
C153   C156    1.377   .     A
N27    C154    1.359   .     A
N27    Ni4     1.895   .     S
C154   C155    1.377   .     A
C154   N29     1.338   .     A
C155   C156    1.359   .     A
C155   C164    1.394   .     A
C156   C161    1.394   .     A
N28    C157    1.359   .     A
N28    C160    1.359   1_554 A
N28    Ni4     1.895   .     S
C157   N29     1.338   .     A
C157   C158    1.377   .     A
C158   C159    1.358   1_554 A
C158   C168    1.394   .     A
C159   C158    1.358   1_556 A
C159   C160    1.377   .     A
C159   C165    1.394   .     A
C160   N28     1.359   1_556 A
C160   N31     1.338   .     A
C161   C162    1.411   .     A
C161   H51     1.084   .     S
C162   C163    1.435   .     A
C162   C185    1.405   .     A
C163   C164    1.411   .     A
C163   C188    1.405   .     A
C164   H52     1.084   .     S
C165   C166    1.412   .     A
C165   H53     1.084   .     S
C166   C167    1.432   1_556 A
C166   C189    1.403   .     A
C167   C166    1.432   1_554 A
C167   C168    1.411   .     A
C167   C192    1.403   .     A
C168   H54     1.084   .     S
N30    C169    1.359   .     A
N30    C172    1.359   .     A
N30    Ni4     1.895   1_556 S
C169   N31     1.338   .     A
C169   C170    1.377   .     A
C170   C171    1.359   .     A
C170   C176    1.394   .     A
C171   C172    1.377   .     A
C171   C173    1.394   .     A
C172   N32     1.338   .     A
C173   C174    1.411   .     A
C173   H55     1.084   .     S
C174   C175    1.435   .     A
C174   C177    1.405   .     A
C175   C176    1.411   .     A
C175   C180    1.405   .     A
C176   H56     1.084   .     S
C177   C178    1.396   .     A
C177   H57     1.083   .     S
C178   C179    1.374   .     A
C178   O25     1.381   .     S
C179   C180    1.396   .     A
C179   O26     1.381   .     S
C180   H58     1.083   .     S
C181   C182    1.396   .     A
C181   H59     1.083   .     S
C182   C183    1.374   1_556 A
C182   O27     1.381   .     S
C183   C182    1.374   1_554 A
C183   C184    1.397   .     A
C183   O28     1.381   .     S
C184   H60     1.083   .     S
C185   C186    1.396   .     A
C185   H61     1.083   .     S
C186   C187    1.374   .     A
C186   O29     1.381   .     S
C187   C188    1.396   .     A
C187   O30     1.381   .     S
C188   H62     1.083   .     S
C189   C190    1.397   .     A
C189   H63     1.084   .     S
C190   C191    1.412   1_556 A
C190   O31     1.395   .     S
C191   C190    1.412   1_554 A
C191   C192    1.397   .     A
C191   O32     1.395   .     S
C192   H64     1.084   .     S
O25    Cu5     1.812   .     S
O26    Cu5     1.812   .     S
O27    Cu1     1.812   1_556 S
O28    Cu1     1.812   .     S
O29    Cu5     1.812   .     S
O30    Cu5     1.812   .     S
O31    Zn3     1.800   1_556 S
O32    Zn3     1.800   .     S
Ni4    N30     1.895   1_554 S
C193   C194    1.411   .     A
C193   C198    1.394   .     A
C193   H65     1.084   .     S
C194   C195    1.435   .     A
C194   C229    1.405   .     A
C195   C196    1.411   .     A
C195   C232    1.405   .     A
C196   C197    1.394   .     A
C196   H66     1.084   .     S
C197   C198    1.359   .     A
C197   C200    1.377   .     A
C198   C199    1.377   .     A
C199   N33     1.359   .     A
C199   N40     1.338   .     A
N33    C200    1.359   .     A
N33    Ni5     1.895   1_556 S
C200   N34     1.338   .     A
N34    C201    1.338   .     A
C201   N35     1.359   1_556 A
C201   C204    1.377   .     A
N35    C201    1.359   1_554 A
N35    C202    1.359   .     A
N35    Ni5     1.895   .     S
C202   C203    1.377   .     A
C202   N37     1.338   .     A
C203   C204    1.359   1_554 A
C203   C212    1.394   .     A
C204   C203    1.359   1_556 A
C204   C209    1.395   .     A
N36    C205    1.359   .     A
N36    C208    1.359   .     A
N36    Ni5     1.895   .     S
C205   N37     1.338   .     A
C205   C206    1.377   .     A
C206   C207    1.359   .     A
C206   C216    1.394   .     A
C207   C208    1.377   .     A
C207   C213    1.394   .     A
C208   N39     1.338   .     A
C209   C210    1.411   .     A
C209   H67     1.084   .     S
C210   C211    1.435   1_556 A
C210   C233    1.405   .     A
C211   C210    1.435   1_554 A
C211   C212    1.411   .     A
C211   C236    1.405   .     A
C212   H68     1.084   .     S
C213   C214    1.411   .     A
C213   H69     1.084   .     S
C214   C215    1.435   .     A
C214   C237    1.405   .     A
C215   C216    1.411   .     A
C215   C240    1.405   .     A
C216   H70     1.084   .     S
N38    C217    1.359   .     A
N38    C220    1.359   1_554 A
N38    Ni5     1.895   .     S
C217   N39     1.338   .     A
C217   C218    1.377   .     A
C218   C219    1.358   1_554 A
C218   C224    1.394   .     A
C219   C218    1.358   1_556 A
C219   C220    1.377   .     A
C219   C221    1.394   .     A
C220   N38     1.359   1_556 A
C220   N40     1.338   .     A
C221   C222    1.411   .     A
C221   H71     1.084   .     S
C222   C223    1.432   1_556 A
C222   C225    1.403   .     A
C223   C222    1.432   1_554 A
C223   C224    1.412   .     A
C223   C228    1.403   .     A
C224   H72     1.084   .     S
C225   C226    1.397   .     A
C225   H73     1.084   .     S
C226   C227    1.412   1_556 A
C226   O33     1.395   .     S
C227   C226    1.412   1_554 A
C227   C228    1.397   .     A
C227   O34     1.395   .     S
C228   H74     1.084   .     S
C229   C230    1.396   .     A
C229   H75     1.083   .     S
C230   C231    1.374   .     A
C230   O35     1.381   .     S
C231   C232    1.396   .     A
C231   O36     1.381   .     S
C232   H76     1.083   .     S
C233   C234    1.397   .     A
C233   H77     1.083   .     S
C234   C235    1.374   1_556 A
C234   O37     1.381   .     S
C235   C234    1.374   1_554 A
C235   C236    1.396   .     A
C235   O38     1.381   .     S
C236   H78     1.083   .     S
C237   C238    1.396   .     A
C237   H79     1.083   .     S
C238   C239    1.374   .     A
C238   O39     1.381   .     S
C239   C240    1.396   .     A
C239   O40     1.381   .     S
C240   H80     1.083   .     S
O33    Zn4     1.800   1_556 S
O34    Zn4     1.800   .     S
O35    Cu6     1.812   .     S
O36    Cu6     1.812   .     S
O37    Cu2     1.812   1_556 S
O38    Cu2     1.812   .     S
O39    Cu6     1.812   .     S
O40    Cu6     1.812   .     S
Ni5    N33     1.895   1_554 S
Cu1    O12     1.812   1_554 S
Cu1    O27     1.812   1_554 S
Cu2    O37     1.812   1_554 S
Cu2    O22     1.812   1_554 S
Zn1    O7      1.800   1_455 S
Zn1    O16     1.800   1_554 S
Zn2    O18     1.800   1_554 S
Zn2    O1      1.800   1_545 S
Zn3    O31     1.800   1_554 S
Zn3    O3      1.800   1_455 S
Zn4    O33     1.800   1_554 S
Zn4    O5      1.800   1_545 S
