data_nbo-PcM_O-Zntet
_audit_creation_date              2021-11-06
_audit_creation_method            'Materials Studio'
_symmetry_space_group_name_H-M    'P1'
_symmetry_Int_Tables_number       1
_symmetry_cell_setting            triclinic
loop_
_symmetry_equiv_pos_as_xyz
  x,y,z
_cell_length_a                    35.2429
_cell_length_b                    35.2429
_cell_length_c                    35.2429
_cell_angle_alpha                 90.0007
_cell_angle_beta                  89.9980
_cell_angle_gamma                 90.0032
loop_
_atom_site_label
_atom_site_type_symbol
_atom_site_fract_x
_atom_site_fract_y
_atom_site_fract_z
_atom_site_U_iso_or_equiv
_atom_site_adp_type
_atom_site_occupancy
C1     C     0.95972   0.15051   0.50139   0.00000  Uiso   1.00
C2     C     0.97984   0.18498   0.50139   0.00000  Uiso   1.00
C3     C     0.02032   0.18498   0.50138   0.00000  Uiso   1.00
C4     C     0.04045   0.15052   0.50138   0.00000  Uiso   1.00
C5     C     0.01939   0.11697   0.50138   0.00000  Uiso   1.00
C6     C     0.98078   0.11697   0.50138   0.00000  Uiso   1.00
C7     C     0.96977   0.07949   0.50138   0.00000  Uiso   1.00
N1     N     0.00008   0.05563   0.50138   0.00000  Uiso   1.00
C8     C     0.03039   0.07950   0.50138   0.00000  Uiso   1.00
N2     N     0.06674   0.06851   0.50137   0.00000  Uiso   1.00
C9     C     0.07772   0.03217   0.50138   0.00000  Uiso   1.00
N3     N     0.05386   0.00185   0.50138   0.00000  Uiso   1.00
C10    C     0.07772   0.97154   0.50139   0.00000  Uiso   1.00
C11    C     0.11520   0.98256   0.50139   0.00000  Uiso   1.00
C12    C     0.11520   0.02116   0.50138   0.00000  Uiso   1.00
N4     N     0.00008   0.94807   0.50140   0.00000  Uiso   1.00
C13    C     0.03039   0.92421   0.50141   0.00000  Uiso   1.00
N5     N     0.06673   0.93520   0.50141   0.00000  Uiso   1.00
C14    C     0.01938   0.88673   0.50142   0.00000  Uiso   1.00
C15    C     0.98077   0.88673   0.50142   0.00000  Uiso   1.00
C16    C     0.96977   0.92421   0.50140   0.00000  Uiso   1.00
C17    C     0.14874   0.04222   0.50138   0.00000  Uiso   1.00
C18    C     0.18320   0.02210   0.50139   0.00000  Uiso   1.00
C19    C     0.18320   0.98162   0.50140   0.00000  Uiso   1.00
C20    C     0.14874   0.96150   0.50140   0.00000  Uiso   1.00
C21    C     0.95971   0.85319   0.50142   0.00000  Uiso   1.00
C22    C     0.97983   0.81873   0.50144   0.00000  Uiso   1.00
C23    C     0.02031   0.81873   0.50144   0.00000  Uiso   1.00
C24    C     0.04044   0.85319   0.50143   0.00000  Uiso   1.00
N6     N     0.94630   0.00185   0.50138   0.00000  Uiso   1.00
C25    C     0.92244   0.97154   0.50138   0.00000  Uiso   1.00
N7     N     0.93342   0.93520   0.50139   0.00000  Uiso   1.00
C26    C     0.88496   0.98255   0.50138   0.00000  Uiso   1.00
C27    C     0.88496   0.02115   0.50138   0.00000  Uiso   1.00
C28    C     0.92244   0.03216   0.50138   0.00000  Uiso   1.00
C29    C     0.85142   0.04221   0.50138   0.00000  Uiso   1.00
C30    C     0.81696   0.02209   0.50139   0.00000  Uiso   1.00
C31    C     0.81695   0.98161   0.50139   0.00000  Uiso   1.00
C32    C     0.85141   0.96149   0.50139   0.00000  Uiso   1.00
N8     N     0.93343   0.06851   0.50138   0.00000  Uiso   1.00
H1     H     0.92901   0.15006   0.50140   0.00000  Uiso   1.00
O1     O     0.96047   0.21948   0.50140   0.00000  Uiso   1.00
O2     O     0.03970   0.21949   0.50138   0.00000  Uiso   1.00
H2     H     0.07116   0.15007   0.50137   0.00000  Uiso   1.00
H3     H     0.14829   0.07294   0.50137   0.00000  Uiso   1.00
O3     O     0.21771   0.04148   0.50139   0.00000  Uiso   1.00
O4     O     0.21771   0.96225   0.50141   0.00000  Uiso   1.00
H4     H     0.14829   0.93078   0.50141   0.00000  Uiso   1.00
H5     H     0.92900   0.85364   0.50142   0.00000  Uiso   1.00
O5     O     0.96046   0.78422   0.50144   0.00000  Uiso   1.00
O6     O     0.03969   0.78422   0.50145   0.00000  Uiso   1.00
H6     H     0.07115   0.85364   0.50144   0.00000  Uiso   1.00
H7     H     0.85188   0.07293   0.50138   0.00000  Uiso   1.00
O7     O     0.78245   0.04147   0.50139   0.00000  Uiso   1.00
O8     O     0.78244   0.96224   0.50140   0.00000  Uiso   1.00
H8     H     0.85186   0.93077   0.50139   0.00000  Uiso   1.00
Ni1    Ni    0.00008   0.00185   0.50138   0.00000  Uiso   1.00
C33    C     0.50009   0.85319   0.04176   0.00000  Uiso   1.00
C34    C     0.50009   0.81873   0.02163   0.00000  Uiso   1.00
C35    C     0.50010   0.81874   0.98115   0.00000  Uiso   1.00
C36    C     0.50010   0.85320   0.96104   0.00000  Uiso   1.00
C37    C     0.50010   0.88674   0.98210   0.00000  Uiso   1.00
C38    C     0.50010   0.88674   0.02070   0.00000  Uiso   1.00
C39    C     0.50010   0.92421   0.03172   0.00000  Uiso   1.00
N9     N     0.50010   0.94808   0.00141   0.00000  Uiso   1.00
C40    C     0.50010   0.92422   0.97109   0.00000  Uiso   1.00
N10    N     0.50010   0.93521   0.93475   0.00000  Uiso   1.00
C41    C     0.50010   0.97156   0.92377   0.00000  Uiso   1.00
N11    N     0.50010   0.00187   0.94763   0.00000  Uiso   1.00
C42    C     0.50010   0.03218   0.92377   0.00000  Uiso   1.00
C43    C     0.50010   0.02117   0.88630   0.00000  Uiso   1.00
C44    C     0.50010   0.98257   0.88629   0.00000  Uiso   1.00
N12    N     0.50010   0.05564   0.00142   0.00000  Uiso   1.00
C45    C     0.50009   0.07950   0.97111   0.00000  Uiso   1.00
N13    N     0.50010   0.06852   0.93477   0.00000  Uiso   1.00
C46    C     0.50009   0.11698   0.98212   0.00000  Uiso   1.00
C47    C     0.50009   0.11698   0.02073   0.00000  Uiso   1.00
C48    C     0.50009   0.07950   0.03173   0.00000  Uiso   1.00
C49    C     0.50010   0.96151   0.85275   0.00000  Uiso   1.00
C50    C     0.50010   0.98164   0.81829   0.00000  Uiso   1.00
C51    C     0.50010   0.02211   0.81829   0.00000  Uiso   1.00
C52    C     0.50010   0.04224   0.85275   0.00000  Uiso   1.00
C53    C     0.50008   0.15052   0.04179   0.00000  Uiso   1.00
C54    C     0.50008   0.18498   0.02167   0.00000  Uiso   1.00
C55    C     0.50008   0.18498   0.98119   0.00000  Uiso   1.00
C56    C     0.50008   0.15052   0.96107   0.00000  Uiso   1.00
N14    N     0.50010   0.00185   0.05519   0.00000  Uiso   1.00
C57    C     0.50010   0.03216   0.07906   0.00000  Uiso   1.00
N15    N     0.50010   0.06851   0.06808   0.00000  Uiso   1.00
C58    C     0.50010   0.02115   0.11653   0.00000  Uiso   1.00
C59    C     0.50010   0.98255   0.11653   0.00000  Uiso   1.00
C60    C     0.50010   0.97154   0.07905   0.00000  Uiso   1.00
C61    C     0.50010   0.96148   0.15007   0.00000  Uiso   1.00
C62    C     0.50010   0.98160   0.18454   0.00000  Uiso   1.00
C63    C     0.50010   0.02208   0.18454   0.00000  Uiso   1.00
C64    C     0.50010   0.04221   0.15008   0.00000  Uiso   1.00
N16    N     0.50010   0.93520   0.06806   0.00000  Uiso   1.00
H9     H     0.50009   0.85364   0.07247   0.00000  Uiso   1.00
O9     O     0.50009   0.78422   0.04100   0.00000  Uiso   1.00
O10    O     0.50010   0.78423   0.96178   0.00000  Uiso   1.00
H10    H     0.50010   0.85366   0.93032   0.00000  Uiso   1.00
H11    H     0.50010   0.93080   0.85320   0.00000  Uiso   1.00
O11    O     0.50009   0.96226   0.78378   0.00000  Uiso   1.00
O12    O     0.50009   0.04149   0.78378   0.00000  Uiso   1.00
H12    H     0.50010   0.07295   0.85321   0.00000  Uiso   1.00
H13    H     0.50008   0.15006   0.07251   0.00000  Uiso   1.00
O13    O     0.50008   0.21949   0.04105   0.00000  Uiso   1.00
O14    O     0.50008   0.21950   0.96182   0.00000  Uiso   1.00
H14    H     0.50009   0.15007   0.93035   0.00000  Uiso   1.00
H15    H     0.50010   0.93077   0.14961   0.00000  Uiso   1.00
O15    O     0.50009   0.96222   0.21904   0.00000  Uiso   1.00
O16    O     0.50010   0.04145   0.21905   0.00000  Uiso   1.00
H16    H     0.50011   0.07292   0.14963   0.00000  Uiso   1.00
Ni2    Ni    0.50009   0.00186   0.00141   0.00000  Uiso   1.00
C65    C     0.95973   0.50188   0.15008   0.00000  Uiso   1.00
C66    C     0.97985   0.50188   0.18454   0.00000  Uiso   1.00
C67    C     0.02033   0.50187   0.18454   0.00000  Uiso   1.00
C68    C     0.04045   0.50187   0.15008   0.00000  Uiso   1.00
C69    C     0.01939   0.50188   0.11653   0.00000  Uiso   1.00
C70    C     0.98079   0.50188   0.11654   0.00000  Uiso   1.00
C71    C     0.96978   0.50188   0.07906   0.00000  Uiso   1.00
N17    N     0.00009   0.50188   0.05520   0.00000  Uiso   1.00
C72    C     0.03040   0.50188   0.07906   0.00000  Uiso   1.00
N18    N     0.06675   0.50188   0.06807   0.00000  Uiso   1.00
C73    C     0.07773   0.50189   0.03173   0.00000  Uiso   1.00
N19    N     0.05387   0.50188   0.00142   0.00000  Uiso   1.00
C74    C     0.07773   0.50188   0.97110   0.00000  Uiso   1.00
C75    C     0.11521   0.50189   0.98211   0.00000  Uiso   1.00
C76    C     0.11521   0.50189   0.02072   0.00000  Uiso   1.00
N20    N     0.00009   0.50186   0.94764   0.00000  Uiso   1.00
C77    C     0.03041   0.50186   0.92377   0.00000  Uiso   1.00
N21    N     0.06675   0.50187   0.93476   0.00000  Uiso   1.00
C78    C     0.01940   0.50185   0.88630   0.00000  Uiso   1.00
C79    C     0.98079   0.50184   0.88630   0.00000  Uiso   1.00
C80    C     0.96978   0.50185   0.92378   0.00000  Uiso   1.00
C81    C     0.14876   0.50189   0.04177   0.00000  Uiso   1.00
C82    C     0.18322   0.50188   0.02165   0.00000  Uiso   1.00
C83    C     0.18321   0.50188   0.98117   0.00000  Uiso   1.00
C84    C     0.14875   0.50188   0.96105   0.00000  Uiso   1.00
C85    C     0.95973   0.50183   0.85276   0.00000  Uiso   1.00
C86    C     0.97986   0.50183   0.81829   0.00000  Uiso   1.00
C87    C     0.02033   0.50183   0.81829   0.00000  Uiso   1.00
C88    C     0.04046   0.50184   0.85275   0.00000  Uiso   1.00
N22    N     0.94631   0.50188   0.00142   0.00000  Uiso   1.00
C89    C     0.92245   0.50187   0.97111   0.00000  Uiso   1.00
N23    N     0.93344   0.50186   0.93476   0.00000  Uiso   1.00
C90    C     0.88497   0.50188   0.98212   0.00000  Uiso   1.00
C91    C     0.88497   0.50189   0.02072   0.00000  Uiso   1.00
C92    C     0.92245   0.50189   0.03173   0.00000  Uiso   1.00
C93    C     0.85143   0.50189   0.04178   0.00000  Uiso   1.00
C94    C     0.81697   0.50188   0.02166   0.00000  Uiso   1.00
C95    C     0.81697   0.50187   0.98118   0.00000  Uiso   1.00
C96    C     0.85143   0.50187   0.96106   0.00000  Uiso   1.00
N24    N     0.93344   0.50189   0.06807   0.00000  Uiso   1.00
H17    H     0.92901   0.50188   0.14963   0.00000  Uiso   1.00
O17    O     0.96048   0.50188   0.21905   0.00000  Uiso   1.00
O18    O     0.03971   0.50187   0.21905   0.00000  Uiso   1.00
H18    H     0.07117   0.50187   0.14962   0.00000  Uiso   1.00
H19    H     0.14830   0.50189   0.07249   0.00000  Uiso   1.00
O19    O     0.21773   0.50188   0.04102   0.00000  Uiso   1.00
O20    O     0.21772   0.50187   0.96179   0.00000  Uiso   1.00
H20    H     0.14830   0.50188   0.93033   0.00000  Uiso   1.00
H21    H     0.92902   0.50183   0.85321   0.00000  Uiso   1.00
O21    O     0.96048   0.50182   0.78378   0.00000  Uiso   1.00
O22    O     0.03971   0.50183   0.78378   0.00000  Uiso   1.00
H22    H     0.07117   0.50185   0.85321   0.00000  Uiso   1.00
H23    H     0.85188   0.50189   0.07250   0.00000  Uiso   1.00
O23    O     0.78245   0.50188   0.04103   0.00000  Uiso   1.00
O24    O     0.78246   0.50186   0.96180   0.00000  Uiso   1.00
H24    H     0.85189   0.50186   0.93034   0.00000  Uiso   1.00
Ni3    Ni    0.00009   0.50188   0.00142   0.00000  Uiso   1.00
C97    C     0.45973   0.65052   0.00138   0.00000  Uiso   1.00
C98    C     0.47986   0.68498   0.00138   0.00000  Uiso   1.00
C99    C     0.52034   0.68498   0.00138   0.00000  Uiso   1.00
C100   C     0.54046   0.65052   0.00138   0.00000  Uiso   1.00
C101   C     0.51940   0.61698   0.00138   0.00000  Uiso   1.00
C102   C     0.48079   0.61698   0.00138   0.00000  Uiso   1.00
C103   C     0.46978   0.57950   0.00138   0.00000  Uiso   1.00
N25    N     0.50009   0.55564   0.00138   0.00000  Uiso   1.00
C104   C     0.53041   0.57950   0.00138   0.00000  Uiso   1.00
N26    N     0.56675   0.56852   0.00138   0.00000  Uiso   1.00
C105   C     0.57773   0.53217   0.00138   0.00000  Uiso   1.00
N27    N     0.55387   0.50186   0.00139   0.00000  Uiso   1.00
C106   C     0.57773   0.47155   0.00139   0.00000  Uiso   1.00
C107   C     0.61521   0.48256   0.00139   0.00000  Uiso   1.00
C108   C     0.61521   0.52116   0.00139   0.00000  Uiso   1.00
N28    N     0.50009   0.44808   0.00140   0.00000  Uiso   1.00
C109   C     0.53040   0.42422   0.00141   0.00000  Uiso   1.00
N29    N     0.56674   0.43521   0.00140   0.00000  Uiso   1.00
C110   C     0.51939   0.38674   0.00142   0.00000  Uiso   1.00
C111   C     0.48078   0.38674   0.00142   0.00000  Uiso   1.00
C112   C     0.46977   0.42422   0.00141   0.00000  Uiso   1.00
C113   C     0.64875   0.54223   0.00139   0.00000  Uiso   1.00
C114   C     0.68321   0.52210   0.00140   0.00000  Uiso   1.00
C115   C     0.68321   0.48163   0.00140   0.00000  Uiso   1.00
C116   C     0.64875   0.46150   0.00140   0.00000  Uiso   1.00
C117   C     0.45972   0.35320   0.00143   0.00000  Uiso   1.00
C118   C     0.47984   0.31874   0.00144   0.00000  Uiso   1.00
C119   C     0.52032   0.31874   0.00144   0.00000  Uiso   1.00
C120   C     0.54045   0.35320   0.00143   0.00000  Uiso   1.00
N30    N     0.44631   0.50186   0.00138   0.00000  Uiso   1.00
C121   C     0.42245   0.47155   0.00139   0.00000  Uiso   1.00
N31    N     0.43343   0.43520   0.00140   0.00000  Uiso   1.00
C122   C     0.38497   0.48256   0.00139   0.00000  Uiso   1.00
C123   C     0.38497   0.52116   0.00138   0.00000  Uiso   1.00
C124   C     0.42245   0.53217   0.00138   0.00000  Uiso   1.00
C125   C     0.35143   0.54222   0.00138   0.00000  Uiso   1.00
C126   C     0.31697   0.52210   0.00139   0.00000  Uiso   1.00
C127   C     0.31696   0.48162   0.00139   0.00000  Uiso   1.00
C128   C     0.35142   0.46150   0.00139   0.00000  Uiso   1.00
N32    N     0.43344   0.56851   0.00138   0.00000  Uiso   1.00
H25    H     0.42902   0.65007   0.00138   0.00000  Uiso   1.00
O25    O     0.46048   0.71949   0.00138   0.00000  Uiso   1.00
O26    O     0.53971   0.71949   0.00138   0.00000  Uiso   1.00
H26    H     0.57117   0.65007   0.00138   0.00000  Uiso   1.00
H27    H     0.64830   0.57294   0.00138   0.00000  Uiso   1.00
O27    O     0.71772   0.54148   0.00140   0.00000  Uiso   1.00
O28    O     0.71772   0.46225   0.00142   0.00000  Uiso   1.00
H28    H     0.64830   0.43079   0.00141   0.00000  Uiso   1.00
H29    H     0.42901   0.35365   0.00143   0.00000  Uiso   1.00
O29    O     0.46047   0.28423   0.00144   0.00000  Uiso   1.00
O30    O     0.53969   0.28423   0.00144   0.00000  Uiso   1.00
H30    H     0.57116   0.35365   0.00143   0.00000  Uiso   1.00
H31    H     0.35189   0.57294   0.00138   0.00000  Uiso   1.00
O31    O     0.28246   0.54148   0.00139   0.00000  Uiso   1.00
O32    O     0.28245   0.46225   0.00140   0.00000  Uiso   1.00
H32    H     0.35187   0.43078   0.00140   0.00000  Uiso   1.00
Ni4    Ni    0.50009   0.50186   0.00139   0.00000  Uiso   1.00
C129   C     0.00008   0.35319   0.54176   0.00000  Uiso   1.00
C130   C     0.00008   0.31873   0.52164   0.00000  Uiso   1.00
C131   C     0.00007   0.31873   0.48116   0.00000  Uiso   1.00
C132   C     0.00007   0.35319   0.46104   0.00000  Uiso   1.00
C133   C     0.00007   0.38674   0.48210   0.00000  Uiso   1.00
C134   C     0.00007   0.38673   0.52071   0.00000  Uiso   1.00
C135   C     0.00008   0.42421   0.53172   0.00000  Uiso   1.00
N33    N     0.00007   0.44807   0.50141   0.00000  Uiso   1.00
C136   C     0.00007   0.42421   0.47110   0.00000  Uiso   1.00
N34    N     0.00007   0.43520   0.43476   0.00000  Uiso   1.00
C137   C     0.00007   0.47155   0.42377   0.00000  Uiso   1.00
N35    N     0.00007   0.50186   0.44764   0.00000  Uiso   1.00
C138   C     0.00008   0.53217   0.42378   0.00000  Uiso   1.00
C139   C     0.00008   0.52117   0.38630   0.00000  Uiso   1.00
C140   C     0.00008   0.48256   0.38630   0.00000  Uiso   1.00
N36    N     0.00007   0.55563   0.50142   0.00000  Uiso   1.00
C141   C     0.00008   0.57950   0.47112   0.00000  Uiso   1.00
N37    N     0.00008   0.56851   0.43477   0.00000  Uiso   1.00
C142   C     0.00007   0.61697   0.48213   0.00000  Uiso   1.00
C143   C     0.00007   0.61697   0.52073   0.00000  Uiso   1.00
C144   C     0.00007   0.57949   0.53174   0.00000  Uiso   1.00
C145   C     1.00008   0.46150   0.35275   0.00000  Uiso   1.00
C146   C     1.00009   0.48163   0.31829   0.00000  Uiso   1.00
C147   C     1.00009   0.52211   0.31830   0.00000  Uiso   1.00
C148   C     0.00009   0.54223   0.35276   0.00000  Uiso   1.00
C149   C     0.00006   0.65051   0.54180   0.00000  Uiso   1.00
C150   C     0.00006   0.68497   0.52168   0.00000  Uiso   1.00
C151   C     0.00007   0.68498   0.48120   0.00000  Uiso   1.00
C152   C     0.00007   0.65052   0.46107   0.00000  Uiso   1.00
N38    N     0.00007   0.50185   0.55520   0.00000  Uiso   1.00
C153   C     0.00007   0.53216   0.57906   0.00000  Uiso   1.00
N39    N     1.00007   0.56850   0.56808   0.00000  Uiso   1.00
C154   C     0.00008   0.52114   0.61654   0.00000  Uiso   1.00
C155   C     0.00008   0.48254   0.61653   0.00000  Uiso   1.00
C156   C     0.00008   0.47153   0.57906   0.00000  Uiso   1.00
C157   C     0.00009   0.46148   0.65008   0.00000  Uiso   1.00
C158   C     0.00009   0.48160   0.68454   0.00000  Uiso   1.00
C159   C     1.00009   0.52207   0.68454   0.00000  Uiso   1.00
C160   C     1.00008   0.54220   0.65008   0.00000  Uiso   1.00
N40    N     0.00008   0.43519   0.56807   0.00000  Uiso   1.00
H33    H     0.00008   0.35364   0.57248   0.00000  Uiso   1.00
O33    O     0.00008   0.28422   0.54101   0.00000  Uiso   1.00
O34    O     0.00007   0.28422   0.46178   0.00000  Uiso   1.00
H34    H     0.00006   0.35365   0.43032   0.00000  Uiso   1.00
H35    H     1.00008   0.43079   0.35320   0.00000  Uiso   1.00
O35    O     1.00009   0.46226   0.28378   0.00000  Uiso   1.00
O36    O     1.00010   0.54149   0.28379   0.00000  Uiso   1.00
H36    H     0.00009   0.57294   0.35321   0.00000  Uiso   1.00
H37    H     1.00005   0.65006   0.57251   0.00000  Uiso   1.00
O37    O     0.00006   0.71948   0.54105   0.00000  Uiso   1.00
O38    O     0.00007   0.71949   0.46183   0.00000  Uiso   1.00
H38    H     0.00008   0.65007   0.43036   0.00000  Uiso   1.00
H39    H     0.00009   0.43076   0.64962   0.00000  Uiso   1.00
O39    O     1.00010   0.46222   0.71905   0.00000  Uiso   1.00
O40    O     1.00009   0.54145   0.71905   0.00000  Uiso   1.00
H40    H     1.00008   0.57292   0.64963   0.00000  Uiso   1.00
Ni5    Ni    0.00007   0.50185   0.50142   0.00000  Uiso   1.00
C161   C     0.45972   0.00188   0.65008   0.00000  Uiso   1.00
C162   C     0.47985   0.00188   0.68454   0.00000  Uiso   1.00
C163   C     0.52032   0.00188   0.68453   0.00000  Uiso   1.00
C164   C     0.54045   0.00188   0.65007   0.00000  Uiso   1.00
C165   C     0.51938   0.00188   0.61653   0.00000  Uiso   1.00
C166   C     0.48078   0.00188   0.61653   0.00000  Uiso   1.00
C167   C     0.46977   0.00188   0.57906   0.00000  Uiso   1.00
N41    N     0.50008   0.00188   0.55519   0.00000  Uiso   1.00
C168   C     0.53039   0.00188   0.57905   0.00000  Uiso   1.00
N42    N     0.56674   0.00188   0.56807   0.00000  Uiso   1.00
C169   C     0.57772   0.00189   0.53172   0.00000  Uiso   1.00
N43    N     0.55386   0.00188   0.50141   0.00000  Uiso   1.00
C170   C     0.57772   0.00188   0.47110   0.00000  Uiso   1.00
C171   C     0.61520   0.00188   0.48211   0.00000  Uiso   1.00
C172   C     0.61520   0.00188   0.52071   0.00000  Uiso   1.00
N44    N     0.50008   0.00187   0.44763   0.00000  Uiso   1.00
C173   C     0.53039   0.00186   0.42377   0.00000  Uiso   1.00
N45    N     0.56674   0.00187   0.43476   0.00000  Uiso   1.00
C174   C     0.51939   0.00185   0.38629   0.00000  Uiso   1.00
C175   C     0.48078   0.00185   0.38629   0.00000  Uiso   1.00
C176   C     0.46977   0.00186   0.42377   0.00000  Uiso   1.00
C177   C     0.64874   0.00188   0.54177   0.00000  Uiso   1.00
C178   C     0.68321   0.00187   0.52164   0.00000  Uiso   1.00
C179   C     0.68320   0.00187   0.48117   0.00000  Uiso   1.00
C180   C     0.64874   0.00187   0.46104   0.00000  Uiso   1.00
C181   C     0.45972   0.00184   0.35275   0.00000  Uiso   1.00
C182   C     0.47985   0.00184   0.31829   0.00000  Uiso   1.00
C183   C     0.52033   0.00183   0.31829   0.00000  Uiso   1.00
C184   C     0.54045   0.00184   0.35275   0.00000  Uiso   1.00
N46    N     0.44630   0.00188   0.50141   0.00000  Uiso   1.00
C185   C     0.42244   0.00188   0.47110   0.00000  Uiso   1.00
N47    N     0.43343   0.00187   0.43476   0.00000  Uiso   1.00
C186   C     0.38496   0.00188   0.48211   0.00000  Uiso   1.00
C187   C     0.38496   0.00189   0.52072   0.00000  Uiso   1.00
C188   C     0.42244   0.00189   0.53173   0.00000  Uiso   1.00
C189   C     0.35142   0.00189   0.54178   0.00000  Uiso   1.00
C190   C     0.31695   0.00188   0.52165   0.00000  Uiso   1.00
C191   C     0.31696   0.00187   0.48117   0.00000  Uiso   1.00
C192   C     0.35142   0.00188   0.46105   0.00000  Uiso   1.00
N48    N     0.43342   0.00189   0.56807   0.00000  Uiso   1.00
H41    H     0.42901   0.00188   0.64963   0.00000  Uiso   1.00
O41    O     0.46047   0.00188   0.71905   0.00000  Uiso   1.00
O42    O     0.53970   0.00188   0.71904   0.00000  Uiso   1.00
H42    H     0.57116   0.00188   0.64962   0.00000  Uiso   1.00
H43    H     0.64829   0.00188   0.57248   0.00000  Uiso   1.00
O43    O     0.71772   0.00186   0.54102   0.00000  Uiso   1.00
O44    O     0.71771   0.00186   0.46179   0.00000  Uiso   1.00
H44    H     0.64829   0.00187   0.43033   0.00000  Uiso   1.00
H45    H     0.42901   0.00185   0.35320   0.00000  Uiso   1.00
O45    O     0.46048   0.00183   0.28378   0.00000  Uiso   1.00
O46    O     0.53970   0.00183   0.28378   0.00000  Uiso   1.00
H46    H     0.57116   0.00184   0.35320   0.00000  Uiso   1.00
H47    H     0.35187   0.00190   0.57249   0.00000  Uiso   1.00
O47    O     0.28244   0.00188   0.54102   0.00000  Uiso   1.00
O48    O     0.28245   0.00186   0.46179   0.00000  Uiso   1.00
H48    H     0.35188   0.00187   0.43034   0.00000  Uiso   1.00
Ni6    Ni    0.50008   0.00188   0.50141   0.00000  Uiso   1.00
Zn1    Zn    0.00008   0.25185   0.50139   0.00000  Uiso   1.00
Zn2    Zn    0.75008   0.00186   0.50140   0.00000  Uiso   1.00
Zn3    Zn    0.00007   0.75185   0.50144   0.00000  Uiso   1.00
Zn4    Zn    0.25008   0.00187   0.50141   0.00000  Uiso   1.00
Zn5    Zn    0.50009   0.00183   0.25141   0.00000  Uiso   1.00
Zn6    Zn    1.00009   0.50187   0.25142   0.00000  Uiso   1.00
Zn7    Zn    0.50009   0.00188   0.75141   0.00000  Uiso   1.00
Zn8    Zn    0.00009   0.50183   0.75142   0.00000  Uiso   1.00
Zn9    Zn    0.25009   0.50187   0.00140   0.00000  Uiso   1.00
Zn10   Zn    0.50008   0.25186   0.00144   0.00000  Uiso   1.00
Zn11   Zn    0.75009   0.50187   0.00141   0.00000  Uiso   1.00
Zn12   Zn    0.50010   0.75186   0.00139   0.00000  Uiso   1.00
loop_
_geom_bond_atom_site_label_1
_geom_bond_atom_site_label_2
_geom_bond_distance
_geom_bond_site_symmetry_2
_ccdc_geom_bond_type
C1     C2      1.406   .     A
C1     C6      1.396   .     A
C1     H1      1.083   .     S
C2     C3      1.427   1_655 A
C2     O1      1.395   .     S
C3     C2      1.427   1_455 A
C3     C4      1.406   .     A
C3     O2      1.395   .     S
C4     C5      1.396   .     A
C4     H2      1.083   .     S
C5     C6      1.361   1_455 A
C5     C8      1.377   .     A
C6     C5      1.361   1_655 A
C6     C7      1.377   .     A
C7     N1      1.360   1_655 A
C7     N8      1.338   .     A
N1     C7      1.360   1_455 A
N1     C8      1.360   .     A
N1     Ni1     1.895   .     S
C8     N2      1.338   .     A
N2     C9      1.338   .     A
C9     N3      1.360   .     A
C9     C12     1.377   .     A
N3     C10     1.360   1_545 A
N3     Ni1     1.895   .     S
C10    N3      1.360   1_565 A
C10    C11     1.377   .     A
C10    N5      1.338   .     A
C11    C12     1.361   1_565 A
C11    C20     1.396   .     A
C12    C11     1.361   1_545 A
C12    C17     1.396   .     A
N4     C13     1.360   .     A
N4     C16     1.360   1_455 A
N4     Ni1     1.895   1_565 S
C13    N5      1.338   .     A
C13    C14     1.377   .     A
C14    C15     1.361   1_455 A
C14    C24     1.396   .     A
C15    C14     1.361   1_655 A
C15    C16     1.377   .     A
C15    C21     1.396   .     A
C16    N4      1.360   1_655 A
C16    N7      1.338   .     A
C17    C18     1.406   .     A
C17    H3      1.083   .     S
C18    C19     1.427   1_545 A
C18    O3      1.395   .     S
C19    C18     1.427   1_565 A
C19    C20     1.406   .     A
C19    O4      1.395   .     S
C20    H4      1.083   .     S
C21    C22     1.406   .     A
C21    H5      1.083   .     S
C22    C23     1.427   1_655 A
C22    O5      1.395   .     S
C23    C22     1.427   1_455 A
C23    C24     1.406   .     A
C23    O6      1.395   .     S
C24    H6      1.083   .     S
N6     C25     1.360   1_545 A
N6     C28     1.360   .     A
N6     Ni1     1.895   1_655 S
C25    N6      1.360   1_565 A
C25    N7      1.338   .     A
C25    C26     1.377   .     A
C26    C27     1.361   1_565 A
C26    C32     1.396   .     A
C27    C26     1.361   1_545 A
C27    C28     1.377   .     A
C27    C29     1.396   .     A
C28    N8      1.338   .     A
C29    C30     1.406   .     A
C29    H7      1.083   .     S
C30    C31     1.427   1_545 A
C30    O7      1.395   .     S
C31    C30     1.427   1_565 A
C31    C32     1.406   .     A
C31    O8      1.395   .     S
C32    H8      1.083   .     S
O1     Zn1     1.803   1_655 S
O2     Zn1     1.803   .     S
O3     Zn4     1.803   .     S
O4     Zn4     1.803   1_565 S
O5     Zn3     1.803   1_655 S
O6     Zn3     1.803   .     S
O7     Zn2     1.803   .     S
O8     Zn2     1.803   1_565 S
Ni1    N6      1.895   1_455 S
Ni1    N4      1.895   1_545 S
C33    C34     1.406   .     A
C33    C38     1.396   .     A
C33    H9      1.083   .     S
C34    C35     1.427   1_554 A
C34    O9      1.395   .     S
C35    C34     1.427   1_556 A
C35    C36     1.406   .     A
C35    O10     1.395   .     S
C36    C37     1.396   .     A
C36    H10     1.083   .     S
C37    C38     1.361   1_556 A
C37    C40     1.377   .     A
C38    C37     1.361   1_554 A
C38    C39     1.377   .     A
C39    N9      1.360   .     A
C39    N16     1.338   .     A
N9     C40     1.360   1_554 A
N9     Ni2     1.895   1_565 S
C40    N9      1.360   1_556 A
C40    N10     1.338   .     A
N10    C41     1.338   .     A
C41    N11     1.360   1_565 A
C41    C44     1.377   .     A
N11    C41     1.360   1_545 A
N11    C42     1.360   .     A
N11    Ni2     1.895   1_556 S
C42    C43     1.377   .     A
C42    N13     1.338   .     A
C43    C44     1.361   1_545 A
C43    C52     1.396   .     A
C44    C43     1.361   1_565 A
C44    C49     1.396   .     A
N12    C45     1.360   1_554 A
N12    C48     1.360   .     A
N12    Ni2     1.895   .     S
C45    N12     1.360   1_556 A
C45    N13     1.338   .     A
C45    C46     1.377   .     A
C46    C47     1.361   1_556 A
C46    C56     1.396   .     A
C47    C46     1.361   1_554 A
C47    C48     1.377   .     A
C47    C53     1.396   .     A
C48    N15     1.338   .     A
C49    C50     1.406   .     A
C49    H11     1.083   .     S
C50    C51     1.427   1_565 A
C50    O11     1.395   .     S
C51    C50     1.427   1_545 A
C51    C52     1.406   .     A
C51    O12     1.395   .     S
C52    H12     1.083   .     S
C53    C54     1.406   .     A
C53    H13     1.083   .     S
C54    C55     1.427   1_554 A
C54    O13     1.395   .     S
C55    C54     1.427   1_556 A
C55    C56     1.406   .     A
C55    O14     1.395   .     S
C56    H14     1.083   .     S
N14    C57     1.360   .     A
N14    C60     1.360   1_545 A
N14    Ni2     1.895   .     S
C57    N15     1.338   .     A
C57    C58     1.377   .     A
C58    C59     1.361   1_545 A
C58    C64     1.396   .     A
C59    C58     1.361   1_565 A
C59    C60     1.377   .     A
C59    C61     1.396   .     A
C60    N14     1.360   1_565 A
C60    N16     1.338   .     A
C61    C62     1.406   .     A
C61    H15     1.083   .     S
C62    C63     1.427   1_565 A
C62    O15     1.395   .     S
C63    C62     1.427   1_545 A
C63    C64     1.406   .     A
C63    O16     1.395   .     S
C64    H16     1.083   .     S
O9     Zn12    1.803   .     S
O10    Zn12    1.803   1_556 S
O11    Zn7     1.803   1_565 S
O12    Zn7     1.803   .     S
O13    Zn10    1.803   .     S
O14    Zn10    1.803   1_556 S
O15    Zn5     1.803   1_565 S
O16    Zn5     1.803   .     S
Ni2    N9      1.895   1_545 S
Ni2    N11     1.895   1_554 S
C65    C66     1.406   .     A
C65    C70     1.396   .     A
C65    H17     1.083   .     S
C66    C67     1.427   1_655 A
C66    O17     1.395   .     S
C67    C66     1.427   1_455 A
C67    C68     1.406   .     A
C67    O18     1.395   .     S
C68    C69     1.396   .     A
C68    H18     1.083   .     S
C69    C70     1.361   1_455 A
C69    C72     1.377   .     A
C70    C69     1.361   1_655 A
C70    C71     1.377   .     A
C71    N17     1.360   1_655 A
C71    N24     1.338   .     A
N17    C71     1.360   1_455 A
N17    C72     1.360   .     A
N17    Ni3     1.895   .     S
C72    N18     1.338   .     A
N18    C73     1.338   .     A
C73    N19     1.360   .     A
C73    C76     1.377   .     A
N19    C74     1.360   1_554 A
N19    Ni3     1.895   .     S
C74    N19     1.360   1_556 A
C74    C75     1.377   .     A
C74    N21     1.338   .     A
C75    C76     1.361   1_556 A
C75    C84     1.396   .     A
C76    C75     1.361   1_554 A
C76    C81     1.396   .     A
N20    C77     1.360   .     A
N20    C80     1.360   1_455 A
N20    Ni3     1.895   1_556 S
C77    N21     1.338   .     A
C77    C78     1.377   .     A
C78    C79     1.361   1_455 A
C78    C88     1.396   .     A
C79    C78     1.361   1_655 A
C79    C80     1.377   .     A
C79    C85     1.396   .     A
C80    N20     1.360   1_655 A
C80    N23     1.338   .     A
C81    C82     1.406   .     A
C81    H19     1.083   .     S
C82    C83     1.427   1_554 A
C82    O19     1.395   .     S
C83    C82     1.427   1_556 A
C83    C84     1.406   .     A
C83    O20     1.395   .     S
C84    H20     1.083   .     S
C85    C86     1.406   .     A
C85    H21     1.083   .     S
C86    C87     1.427   1_655 A
C86    O21     1.395   .     S
C87    C86     1.427   1_455 A
C87    C88     1.406   .     A
C87    O22     1.395   .     S
C88    H22     1.083   .     S
N22    C89     1.360   1_554 A
N22    C92     1.360   .     A
N22    Ni3     1.895   1_655 S
C89    N22     1.360   1_556 A
C89    N23     1.338   .     A
C89    C90     1.377   .     A
C90    C91     1.361   1_556 A
C90    C96     1.396   .     A
C91    C90     1.361   1_554 A
C91    C92     1.377   .     A
C91    C93     1.396   .     A
C92    N24     1.338   .     A
C93    C94     1.406   .     A
C93    H23     1.083   .     S
C94    C95     1.427   1_554 A
C94    O23     1.395   .     S
C95    C94     1.427   1_556 A
C95    C96     1.406   .     A
C95    O24     1.395   .     S
C96    H24     1.083   .     S
O17    Zn6     1.803   .     S
O18    Zn6     1.803   1_455 S
O19    Zn9     1.803   .     S
O20    Zn9     1.803   1_556 S
O21    Zn8     1.803   1_655 S
O22    Zn8     1.803   .     S
O23    Zn11    1.803   .     S
O24    Zn11    1.803   1_556 S
Ni3    N22     1.895   1_455 S
Ni3    N20     1.895   1_554 S
C97    C98     1.406   .     A
C97    C102    1.396   .     A
C97    H25     1.083   .     S
C98    C99     1.427   .     A
C98    O25     1.395   .     S
C99    C100    1.406   .     A
C99    O26     1.395   .     S
C100   C101    1.396   .     A
C100   H26     1.083   .     S
C101   C102    1.361   .     A
C101   C104    1.377   .     A
C102   C103    1.377   .     A
C103   N25     1.360   .     A
C103   N32     1.338   .     A
N25    C104    1.360   .     A
N25    Ni4     1.895   .     S
C104   N26     1.338   .     A
N26    C105    1.338   .     A
C105   N27     1.360   .     A
C105   C108    1.377   .     A
N27    C106    1.360   .     A
N27    Ni4     1.895   .     S
C106   C107    1.377   .     A
C106   N29     1.338   .     A
C107   C108    1.361   .     A
C107   C116    1.396   .     A
C108   C113    1.396   .     A
N28    C109    1.360   .     A
N28    C112    1.360   .     A
N28    Ni4     1.895   .     S
C109   N29     1.338   .     A
C109   C110    1.377   .     A
C110   C111    1.361   .     A
C110   C120    1.396   .     A
C111   C112    1.377   .     A
C111   C117    1.396   .     A
C112   N31     1.338   .     A
C113   C114    1.406   .     A
C113   H27     1.083   .     S
C114   C115    1.427   .     A
C114   O27     1.395   .     S
C115   C116    1.406   .     A
C115   O28     1.395   .     S
C116   H28     1.083   .     S
C117   C118    1.406   .     A
C117   H29     1.083   .     S
C118   C119    1.427   .     A
C118   O29     1.395   .     S
C119   C120    1.406   .     A
C119   O30     1.395   .     S
C120   H30     1.083   .     S
N30    C121    1.360   .     A
N30    C124    1.360   .     A
N30    Ni4     1.895   .     S
C121   N31     1.338   .     A
C121   C122    1.377   .     A
C122   C123    1.361   .     A
C122   C128    1.396   .     A
C123   C124    1.377   .     A
C123   C125    1.396   .     A
C124   N32     1.338   .     A
C125   C126    1.406   .     A
C125   H31     1.083   .     S
C126   C127    1.427   .     A
C126   O31     1.395   .     S
C127   C128    1.406   .     A
C127   O32     1.395   .     S
C128   H32     1.083   .     S
O25    Zn12    1.803   .     S
O26    Zn12    1.803   .     S
O27    Zn11    1.803   .     S
O28    Zn11    1.803   .     S
O29    Zn10    1.803   .     S
O30    Zn10    1.803   .     S
O31    Zn9     1.803   .     S
O32    Zn9     1.803   .     S
C129   C130    1.406   .     A
C129   C134    1.396   .     A
C129   H33     1.083   .     S
C130   C131    1.427   .     A
C130   O33     1.395   .     S
C131   C132    1.406   .     A
C131   O34     1.395   .     S
C132   C133    1.396   .     A
C132   H34     1.083   .     S
C133   C134    1.361   .     A
C133   C136    1.377   .     A
C134   C135    1.377   .     A
C135   N33     1.360   .     A
C135   N40     1.338   .     A
N33    C136    1.360   .     A
N33    Ni5     1.895   .     S
C136   N34     1.338   .     A
N34    C137    1.338   .     A
C137   N35     1.360   .     A
C137   C140    1.377   .     A
N35    C138    1.360   .     A
N35    Ni5     1.895   .     S
C138   C139    1.377   .     A
C138   N37     1.338   .     A
C139   C140    1.361   .     A
C139   C148    1.396   .     A
C140   C145    1.396   1_455 A
N36    C141    1.360   .     A
N36    C144    1.360   .     A
N36    Ni5     1.895   .     S
C141   N37     1.338   .     A
C141   C142    1.377   .     A
C142   C143    1.361   .     A
C142   C152    1.396   .     A
C143   C144    1.377   .     A
C143   C149    1.396   .     A
C144   N39     1.338   1_455 A
C145   C140    1.396   1_655 A
C145   C146    1.406   .     A
C145   H35     1.083   .     S
C146   C147    1.427   .     A
C146   O35     1.395   .     S
C147   C148    1.406   1_655 A
C147   O36     1.395   .     S
C148   C147    1.406   1_455 A
C148   H36     1.083   .     S
C149   C150    1.406   .     A
C149   H37     1.083   1_455 S
C150   C151    1.427   .     A
C150   O37     1.395   .     S
C151   C152    1.406   .     A
C151   O38     1.395   .     S
C152   H38     1.083   .     S
N38    C153    1.360   .     A
N38    C156    1.360   .     A
N38    Ni5     1.895   .     S
C153   N39     1.338   1_455 A
C153   C154    1.377   .     A
N39    C144    1.338   1_655 A
N39    C153    1.338   1_655 A
C154   C155    1.361   .     A
C154   C160    1.396   1_455 A
C155   C156    1.377   .     A
C155   C157    1.396   .     A
C156   N40     1.338   .     A
C157   C158    1.406   .     A
C157   H39     1.083   .     S
C158   C159    1.427   1_455 A
C158   O39     1.395   1_455 S
C159   C158    1.427   1_655 A
C159   C160    1.406   .     A
C159   O40     1.395   .     S
C160   C154    1.396   1_655 A
C160   H40     1.083   .     S
O33    Zn1     1.803   .     S
O34    Zn1     1.803   .     S
O35    Zn6     1.803   .     S
O36    Zn6     1.803   .     S
H37    C149    1.083   1_655 S
O37    Zn3     1.803   .     S
O38    Zn3     1.803   .     S
O39    C158    1.395   1_655 S
O39    Zn8     1.803   1_655 S
O40    Zn8     1.803   1_655 S
C161   C162    1.406   .     A
C161   C166    1.396   .     A
C161   H41     1.083   .     S
C162   C163    1.427   .     A
C162   O41     1.395   .     S
C163   C164    1.406   .     A
C163   O42     1.395   .     S
C164   C165    1.396   .     A
C164   H42     1.083   .     S
C165   C166    1.361   .     A
C165   C168    1.377   .     A
C166   C167    1.377   .     A
C167   N41     1.360   .     A
C167   N48     1.338   .     A
N41    C168    1.360   .     A
N41    Ni6     1.895   .     S
C168   N42     1.338   .     A
N42    C169    1.338   .     A
C169   N43     1.360   .     A
C169   C172    1.377   .     A
N43    C170    1.360   .     A
N43    Ni6     1.895   .     S
C170   C171    1.377   .     A
C170   N45     1.338   .     A
C171   C172    1.361   .     A
C171   C180    1.396   .     A
C172   C177    1.396   .     A
N44    C173    1.360   .     A
N44    C176    1.360   .     A
N44    Ni6     1.895   .     S
C173   N45     1.338   .     A
C173   C174    1.377   .     A
C174   C175    1.361   .     A
C174   C184    1.396   .     A
C175   C176    1.377   .     A
C175   C181    1.396   .     A
C176   N47     1.338   .     A
C177   C178    1.406   .     A
C177   H43     1.083   .     S
C178   C179    1.427   .     A
C178   O43     1.395   .     S
C179   C180    1.406   .     A
C179   O44     1.395   .     S
C180   H44     1.083   .     S
C181   C182    1.406   .     A
C181   H45     1.083   .     S
C182   C183    1.427   .     A
C182   O45     1.395   .     S
C183   C184    1.406   .     A
C183   O46     1.395   .     S
C184   H46     1.083   .     S
N46    C185    1.360   .     A
N46    C188    1.360   .     A
N46    Ni6     1.895   .     S
C185   N47     1.338   .     A
C185   C186    1.377   .     A
C186   C187    1.361   .     A
C186   C192    1.396   .     A
C187   C188    1.377   .     A
C187   C189    1.396   .     A
C188   N48     1.338   .     A
C189   C190    1.406   .     A
C189   H47     1.083   .     S
C190   C191    1.427   .     A
C190   O47     1.395   .     S
C191   C192    1.406   .     A
C191   O48     1.395   .     S
C192   H48     1.083   .     S
O41    Zn7     1.803   .     S
O42    Zn7     1.803   .     S
O43    Zn2     1.803   .     S
O44    Zn2     1.803   .     S
O45    Zn5     1.803   .     S
O46    Zn5     1.803   .     S
O47    Zn4     1.803   .     S
O48    Zn4     1.803   .     S
Zn1    O1      1.803   1_455 S
Zn2    O8      1.803   1_545 S
Zn3    O5      1.803   1_455 S
Zn4    O4      1.803   1_545 S
Zn5    O15     1.803   1_545 S
Zn6    O18     1.803   1_655 S
Zn7    O11     1.803   1_545 S
Zn8    O21     1.803   1_455 S
Zn8    O40     1.803   1_455 S
Zn8    O39     1.803   1_455 S
Zn9    O20     1.803   1_554 S
Zn10   O14     1.803   1_554 S
Zn11   O24     1.803   1_554 S
Zn12   O10     1.803   1_554 S
