data_nbo-PcMN_O-Zntet
_audit_creation_date              2021-11-06
_audit_creation_method            'Materials Studio'
_symmetry_space_group_name_H-M    'P1'
_symmetry_Int_Tables_number       1
_symmetry_cell_setting            triclinic
loop_
_symmetry_equiv_pos_as_xyz
  x,y,z
_cell_length_a                    44.9726
_cell_length_b                    44.9726
_cell_length_c                    44.9726
_cell_angle_alpha                 90.0032
_cell_angle_beta                  90.0032
_cell_angle_gamma                 90.0031
loop_
_atom_site_label
_atom_site_type_symbol
_atom_site_fract_x
_atom_site_fract_y
_atom_site_fract_z
_atom_site_U_iso_or_equiv
_atom_site_adp_type
_atom_site_occupancy
C1     C     0.96883   0.88428   0.50031   0.00000  Uiso   1.00
C2     C     0.98451   0.85709   0.50031   0.00000  Uiso   1.00
C3     C     0.01635   0.85710   0.50031   0.00000  Uiso   1.00
C4     C     0.03203   0.88428   0.50031   0.00000  Uiso   1.00
C5     C     0.01553   0.91053   0.50031   0.00000  Uiso   1.00
C6     C     0.98533   0.91052   0.50031   0.00000  Uiso   1.00
C7     C     0.97669   0.93989   0.50031   0.00000  Uiso   1.00
N1     N     0.00043   0.95859   0.50031   0.00000  Uiso   1.00
C8     C     0.02418   0.93989   0.50031   0.00000  Uiso   1.00
N2     N     0.05266   0.94850   0.50030   0.00000  Uiso   1.00
C9     C     0.06127   0.97699   0.50029   0.00000  Uiso   1.00
N3     N     0.04257   0.00073   0.50029   0.00000  Uiso   1.00
C10    C     0.06127   0.02448   0.50029   0.00000  Uiso   1.00
C11    C     0.09064   0.01584   0.50028   0.00000  Uiso   1.00
C12    C     0.09064   0.98563   0.50029   0.00000  Uiso   1.00
N4     N     0.00043   0.04286   0.50030   0.00000  Uiso   1.00
C13    C     0.02418   0.06157   0.50030   0.00000  Uiso   1.00
N5     N     0.05266   0.05296   0.50029   0.00000  Uiso   1.00
C14    C     0.01554   0.09093   0.50030   0.00000  Uiso   1.00
C15    C     0.98533   0.09093   0.50030   0.00000  Uiso   1.00
C16    C     0.97669   0.06157   0.50030   0.00000  Uiso   1.00
C17    C     0.11688   0.96913   0.50028   0.00000  Uiso   1.00
C18    C     0.14407   0.98482   0.50027   0.00000  Uiso   1.00
C19    C     0.14407   0.01666   0.50027   0.00000  Uiso   1.00
C20    C     0.11688   0.03234   0.50028   0.00000  Uiso   1.00
C21    C     0.96883   0.11718   0.50030   0.00000  Uiso   1.00
C22    C     0.98452   0.14436   0.50029   0.00000  Uiso   1.00
C23    C     0.01636   0.14436   0.50029   0.00000  Uiso   1.00
C24    C     0.03204   0.11718   0.50029   0.00000  Uiso   1.00
N6     N     0.95830   0.00073   0.50030   0.00000  Uiso   1.00
C25    C     0.93960   0.02447   0.50030   0.00000  Uiso   1.00
N7     N     0.94821   0.05296   0.50030   0.00000  Uiso   1.00
C26    C     0.91023   0.01583   0.50030   0.00000  Uiso   1.00
C27    C     0.91023   0.98563   0.50030   0.00000  Uiso   1.00
C28    C     0.93959   0.97698   0.50030   0.00000  Uiso   1.00
C29    C     0.88398   0.96913   0.50029   0.00000  Uiso   1.00
C30    C     0.85679   0.98481   0.50028   0.00000  Uiso   1.00
C31    C     0.85680   0.01665   0.50028   0.00000  Uiso   1.00
C32    C     0.88398   0.03233   0.50029   0.00000  Uiso   1.00
N8     N     0.94820   0.94850   0.50031   0.00000  Uiso   1.00
H1     H     0.94474   0.88493   0.50031   0.00000  Uiso   1.00
H2     H     0.05612   0.88494   0.50031   0.00000  Uiso   1.00
H3     H     0.11623   0.94505   0.50028   0.00000  Uiso   1.00
H4     H     0.11623   0.05643   0.50028   0.00000  Uiso   1.00
H5     H     0.94475   0.11653   0.50030   0.00000  Uiso   1.00
H6     H     0.05613   0.11653   0.50029   0.00000  Uiso   1.00
H7     H     0.88463   0.94504   0.50029   0.00000  Uiso   1.00
H8     H     0.88464   0.05642   0.50029   0.00000  Uiso   1.00
C33    C     0.82968   0.96939   0.50027   0.00000  Uiso   1.00
C34    C     0.80285   0.98504   0.50027   0.00000  Uiso   1.00
C35    C     0.80285   0.01644   0.50027   0.00000  Uiso   1.00
C36    C     0.82969   0.03208   0.50027   0.00000  Uiso   1.00
C37    C     0.96908   0.82998   0.50030   0.00000  Uiso   1.00
C38    C     0.98473   0.80315   0.50030   0.00000  Uiso   1.00
C39    C     0.01613   0.80315   0.50030   0.00000  Uiso   1.00
C40    C     0.03178   0.82999   0.50030   0.00000  Uiso   1.00
C41    C     0.17118   0.96939   0.50027   0.00000  Uiso   1.00
C42    C     0.19801   0.98504   0.50026   0.00000  Uiso   1.00
C43    C     0.19801   0.01644   0.50026   0.00000  Uiso   1.00
C44    C     0.17118   0.03209   0.50026   0.00000  Uiso   1.00
C45    C     0.96909   0.17147   0.50029   0.00000  Uiso   1.00
C46    C     0.98474   0.19831   0.50029   0.00000  Uiso   1.00
C47    C     0.01614   0.19831   0.50029   0.00000  Uiso   1.00
C48    C     0.03179   0.17147   0.50029   0.00000  Uiso   1.00
H9     H     0.82931   0.94529   0.50027   0.00000  Uiso   1.00
O1     O     0.77582   0.96979   0.50026   0.00000  Uiso   1.00
O2     O     0.77583   0.03169   0.50026   0.00000  Uiso   1.00
H10    H     0.82932   0.05618   0.50027   0.00000  Uiso   1.00
H11    H     0.94499   0.82961   0.50030   0.00000  Uiso   1.00
O3     O     0.96949   0.77612   0.50030   0.00000  Uiso   1.00
O4     O     0.03138   0.77613   0.50030   0.00000  Uiso   1.00
H12    H     0.05587   0.82962   0.50030   0.00000  Uiso   1.00
H13    H     0.17155   0.94530   0.50027   0.00000  Uiso   1.00
O5     O     0.22504   0.96980   0.50025   0.00000  Uiso   1.00
O6     O     0.22503   0.03169   0.50025   0.00000  Uiso   1.00
H14    H     0.17155   0.05618   0.50026   0.00000  Uiso   1.00
H15    H     0.94500   0.17185   0.50029   0.00000  Uiso   1.00
O7     O     0.96950   0.22533   0.50029   0.00000  Uiso   1.00
O8     O     0.03139   0.22533   0.50029   0.00000  Uiso   1.00
H16    H     0.05588   0.17185   0.50029   0.00000  Uiso   1.00
Ni1    Ni    0.00043   0.00073   0.50030   0.00000  Uiso   1.00
C49    C     0.50045   0.11720   0.03185   0.00000  Uiso   1.00
C50    C     0.50044   0.14438   0.01617   0.00000  Uiso   1.00
C51    C     0.50044   0.14438   0.98433   0.00000  Uiso   1.00
C52    C     0.50046   0.11720   0.96864   0.00000  Uiso   1.00
C53    C     0.50046   0.09095   0.98515   0.00000  Uiso   1.00
C54    C     0.50046   0.09095   0.01535   0.00000  Uiso   1.00
C55    C     0.50047   0.06159   0.02399   0.00000  Uiso   1.00
N9     N     0.50048   0.04288   0.00025   0.00000  Uiso   1.00
C56    C     0.50047   0.06158   0.97650   0.00000  Uiso   1.00
N10    N     0.50048   0.05297   0.94802   0.00000  Uiso   1.00
C57    C     0.50048   0.02449   0.93941   0.00000  Uiso   1.00
N11    N     0.50049   0.00075   0.95811   0.00000  Uiso   1.00
C58    C     0.50049   0.97700   0.93941   0.00000  Uiso   1.00
C59    C     0.50049   0.98564   0.91004   0.00000  Uiso   1.00
C60    C     0.50048   0.01585   0.91004   0.00000  Uiso   1.00
N12    N     0.50048   0.95861   0.00024   0.00000  Uiso   1.00
C61    C     0.50048   0.93991   0.97650   0.00000  Uiso   1.00
N13    N     0.50049   0.94852   0.94801   0.00000  Uiso   1.00
C62    C     0.50048   0.91054   0.98514   0.00000  Uiso   1.00
C63    C     0.50047   0.91054   0.01535   0.00000  Uiso   1.00
C64    C     0.50048   0.93991   0.02399   0.00000  Uiso   1.00
C65    C     0.50048   0.03235   0.88380   0.00000  Uiso   1.00
C66    C     0.50047   0.01667   0.85661   0.00000  Uiso   1.00
C67    C     0.50047   0.98483   0.85661   0.00000  Uiso   1.00
C68    C     0.50048   0.96914   0.88379   0.00000  Uiso   1.00
C69    C     0.50047   0.88430   0.03185   0.00000  Uiso   1.00
C70    C     0.50046   0.85711   0.01616   0.00000  Uiso   1.00
C71    C     0.50046   0.85711   0.98433   0.00000  Uiso   1.00
C72    C     0.50047   0.88429   0.96864   0.00000  Uiso   1.00
N14    N     0.50048   0.00075   0.04238   0.00000  Uiso   1.00
C73    C     0.50048   0.97700   0.06108   0.00000  Uiso   1.00
N15    N     0.50048   0.94852   0.05247   0.00000  Uiso   1.00
C74    C     0.50047   0.98565   0.09045   0.00000  Uiso   1.00
C75    C     0.50047   0.01585   0.09045   0.00000  Uiso   1.00
C76    C     0.50048   0.02449   0.06108   0.00000  Uiso   1.00
C77    C     0.50047   0.03236   0.11669   0.00000  Uiso   1.00
C78    C     0.50046   0.01667   0.14388   0.00000  Uiso   1.00
C79    C     0.50046   0.98484   0.14388   0.00000  Uiso   1.00
C80    C     0.50047   0.96915   0.11670   0.00000  Uiso   1.00
N16    N     0.50047   0.05298   0.05247   0.00000  Uiso   1.00
H17    H     0.50045   0.11654   0.05594   0.00000  Uiso   1.00
H18    H     0.50046   0.11654   0.94456   0.00000  Uiso   1.00
H19    H     0.50048   0.05644   0.88445   0.00000  Uiso   1.00
H20    H     0.50048   0.94506   0.88444   0.00000  Uiso   1.00
H21    H     0.50046   0.88495   0.05593   0.00000  Uiso   1.00
H22    H     0.50047   0.88495   0.94455   0.00000  Uiso   1.00
H23    H     0.50046   0.05644   0.11604   0.00000  Uiso   1.00
H24    H     0.50047   0.94506   0.11604   0.00000  Uiso   1.00
C81    C     0.50045   0.03210   0.17099   0.00000  Uiso   1.00
C82    C     0.50045   0.01646   0.19782   0.00000  Uiso   1.00
C83    C     0.50045   0.98506   0.19782   0.00000  Uiso   1.00
C84    C     0.50046   0.96941   0.17099   0.00000  Uiso   1.00
C85    C     0.50043   0.17149   0.03160   0.00000  Uiso   1.00
C86    C     0.50042   0.19833   0.01595   0.00000  Uiso   1.00
C87    C     0.50042   0.19833   0.98455   0.00000  Uiso   1.00
C88    C     0.50043   0.17149   0.96890   0.00000  Uiso   1.00
C89    C     0.50047   0.03210   0.82950   0.00000  Uiso   1.00
C90    C     0.50046   0.01645   0.80267   0.00000  Uiso   1.00
C91    C     0.50046   0.98505   0.80266   0.00000  Uiso   1.00
C92    C     0.50047   0.96940   0.82950   0.00000  Uiso   1.00
C93    C     0.50044   0.83000   0.03159   0.00000  Uiso   1.00
C94    C     0.50043   0.80317   0.01594   0.00000  Uiso   1.00
C95    C     0.50043   0.80317   0.98454   0.00000  Uiso   1.00
C96    C     0.50044   0.83000   0.96890   0.00000  Uiso   1.00
H25    H     0.50045   0.05620   0.17136   0.00000  Uiso   1.00
O9     O     0.50044   0.03171   0.22485   0.00000  Uiso   1.00
O10    O     0.50044   0.96981   0.22485   0.00000  Uiso   1.00
H26    H     0.50046   0.94532   0.17136   0.00000  Uiso   1.00
H27    H     0.50043   0.17186   0.05569   0.00000  Uiso   1.00
O11    O     0.50041   0.22535   0.03120   0.00000  Uiso   1.00
O12    O     0.50041   0.22535   0.96931   0.00000  Uiso   1.00
H28    H     0.50043   0.17186   0.94481   0.00000  Uiso   1.00
H29    H     0.50047   0.05619   0.82914   0.00000  Uiso   1.00
O13    O     0.50045   0.03170   0.77564   0.00000  Uiso   1.00
O14    O     0.50045   0.96981   0.77564   0.00000  Uiso   1.00
H30    H     0.50047   0.94531   0.82912   0.00000  Uiso   1.00
H31    H     0.50044   0.82964   0.05568   0.00000  Uiso   1.00
O15    O     0.50042   0.77614   0.03119   0.00000  Uiso   1.00
O16    O     0.50042   0.77614   0.96930   0.00000  Uiso   1.00
H32    H     0.50044   0.82963   0.94480   0.00000  Uiso   1.00
Ni2    Ni    0.50048   0.00075   0.00024   0.00000  Uiso   1.00
C97    C     0.03201   0.50083   0.11674   0.00000  Uiso   1.00
C98    C     0.01632   0.50081   0.14392   0.00000  Uiso   1.00
C99    C     0.98449   0.50081   0.14392   0.00000  Uiso   1.00
C100   C     0.96880   0.50083   0.11674   0.00000  Uiso   1.00
C101   C     0.98530   0.50085   0.09049   0.00000  Uiso   1.00
C102   C     0.01550   0.50085   0.09049   0.00000  Uiso   1.00
C103   C     0.02414   0.50085   0.06113   0.00000  Uiso   1.00
N17    N     0.00040   0.50086   0.04242   0.00000  Uiso   1.00
C104   C     0.97665   0.50086   0.06113   0.00000  Uiso   1.00
N18    N     0.94817   0.50085   0.05252   0.00000  Uiso   1.00
C105   C     0.93956   0.50086   0.02403   0.00000  Uiso   1.00
N19    N     0.95826   0.50086   0.00029   0.00000  Uiso   1.00
C106   C     0.93956   0.50086   0.97654   0.00000  Uiso   1.00
C107   C     0.91019   0.50085   0.98518   0.00000  Uiso   1.00
C108   C     0.91019   0.50085   0.01539   0.00000  Uiso   1.00
N20    N     0.00040   0.50087   0.95815   0.00000  Uiso   1.00
C109   C     0.97665   0.50087   0.93945   0.00000  Uiso   1.00
N21    N     0.94817   0.50086   0.94806   0.00000  Uiso   1.00
C110   C     0.98529   0.50086   0.91008   0.00000  Uiso   1.00
C111   C     0.01550   0.50086   0.91008   0.00000  Uiso   1.00
C112   C     0.02414   0.50086   0.93945   0.00000  Uiso   1.00
C113   C     0.88395   0.50084   0.03189   0.00000  Uiso   1.00
C114   C     0.85676   0.50083   0.01620   0.00000  Uiso   1.00
C115   C     0.85676   0.50083   0.98437   0.00000  Uiso   1.00
C116   C     0.88394   0.50084   0.96868   0.00000  Uiso   1.00
C117   C     0.03200   0.50084   0.88384   0.00000  Uiso   1.00
C118   C     0.01631   0.50082   0.85666   0.00000  Uiso   1.00
C119   C     0.98448   0.50083   0.85665   0.00000  Uiso   1.00
C120   C     0.96879   0.50084   0.88384   0.00000  Uiso   1.00
N22    N     0.04253   0.50086   0.00029   0.00000  Uiso   1.00
C121   C     0.06123   0.50085   0.97655   0.00000  Uiso   1.00
N23    N     0.05262   0.50085   0.94806   0.00000  Uiso   1.00
C122   C     0.09060   0.50084   0.98519   0.00000  Uiso   1.00
C123   C     0.09060   0.50084   0.01539   0.00000  Uiso   1.00
C124   C     0.06124   0.50085   0.02404   0.00000  Uiso   1.00
C125   C     0.11685   0.50083   0.03190   0.00000  Uiso   1.00
C126   C     0.14403   0.50082   0.01621   0.00000  Uiso   1.00
C127   C     0.14403   0.50082   0.98437   0.00000  Uiso   1.00
C128   C     0.11685   0.50083   0.96869   0.00000  Uiso   1.00
N24    N     0.05263   0.50085   0.05252   0.00000  Uiso   1.00
H33    H     0.05609   0.50083   0.11609   0.00000  Uiso   1.00
H34    H     0.94471   0.50083   0.11609   0.00000  Uiso   1.00
H35    H     0.88460   0.50084   0.05598   0.00000  Uiso   1.00
H36    H     0.88460   0.50084   0.94460   0.00000  Uiso   1.00
H37    H     0.05609   0.50084   0.88450   0.00000  Uiso   1.00
H38    H     0.94471   0.50084   0.88449   0.00000  Uiso   1.00
H39    H     0.11620   0.50083   0.05598   0.00000  Uiso   1.00
H40    H     0.11619   0.50083   0.94460   0.00000  Uiso   1.00
C129   C     0.17114   0.50080   0.03164   0.00000  Uiso   1.00
C130   C     0.19798   0.50079   0.01599   0.00000  Uiso   1.00
C131   C     0.19798   0.50079   0.98459   0.00000  Uiso   1.00
C132   C     0.17114   0.50080   0.96895   0.00000  Uiso   1.00
C133   C     0.03175   0.50080   0.17103   0.00000  Uiso   1.00
C134   C     0.01611   0.50078   0.19787   0.00000  Uiso   1.00
C135   C     0.98471   0.50078   0.19787   0.00000  Uiso   1.00
C136   C     0.96906   0.50080   0.17104   0.00000  Uiso   1.00
C137   C     0.82965   0.50081   0.03163   0.00000  Uiso   1.00
C138   C     0.80282   0.50080   0.01599   0.00000  Uiso   1.00
C139   C     0.80282   0.50080   0.98459   0.00000  Uiso   1.00
C140   C     0.82965   0.50081   0.96894   0.00000  Uiso   1.00
C141   C     0.03174   0.50080   0.82955   0.00000  Uiso   1.00
C142   C     0.01610   0.50079   0.80271   0.00000  Uiso   1.00
C143   C     0.98470   0.50079   0.80271   0.00000  Uiso   1.00
C144   C     0.96905   0.50081   0.82954   0.00000  Uiso   1.00
H41    H     0.17151   0.50080   0.05573   0.00000  Uiso   1.00
O17    O     0.22500   0.50077   0.03124   0.00000  Uiso   1.00
O18    O     0.22500   0.50077   0.96935   0.00000  Uiso   1.00
H42    H     0.17151   0.50080   0.94485   0.00000  Uiso   1.00
H43    H     0.05585   0.50080   0.17140   0.00000  Uiso   1.00
O19    O     0.03136   0.50076   0.22489   0.00000  Uiso   1.00
O20    O     0.96946   0.50076   0.22489   0.00000  Uiso   1.00
H44    H     0.94496   0.50080   0.17141   0.00000  Uiso   1.00
H45    H     0.82928   0.50081   0.05573   0.00000  Uiso   1.00
O21    O     0.77579   0.50078   0.03123   0.00000  Uiso   1.00
O22    O     0.77579   0.50078   0.96934   0.00000  Uiso   1.00
H46    H     0.82928   0.50081   0.94484   0.00000  Uiso   1.00
H47    H     0.05584   0.50080   0.82918   0.00000  Uiso   1.00
O23    O     0.03135   0.50077   0.77569   0.00000  Uiso   1.00
O24    O     0.96945   0.50077   0.77568   0.00000  Uiso   1.00
H48    H     0.94496   0.50080   0.82917   0.00000  Uiso   1.00
Ni3    Ni    0.00040   0.50086   0.00029   0.00000  Uiso   1.00
C145   C     0.46879   0.38429   0.00028   0.00000  Uiso   1.00
C146   C     0.48448   0.35711   0.00027   0.00000  Uiso   1.00
C147   C     0.51631   0.35711   0.00027   0.00000  Uiso   1.00
C148   C     0.53200   0.38430   0.00027   0.00000  Uiso   1.00
C149   C     0.51550   0.41054   0.00028   0.00000  Uiso   1.00
C150   C     0.48529   0.41054   0.00028   0.00000  Uiso   1.00
C151   C     0.47665   0.43991   0.00028   0.00000  Uiso   1.00
N25    N     0.50040   0.45861   0.00028   0.00000  Uiso   1.00
C152   C     0.52414   0.43991   0.00028   0.00000  Uiso   1.00
N26    N     0.55262   0.44852   0.00028   0.00000  Uiso   1.00
C153   C     0.56123   0.47700   0.00028   0.00000  Uiso   1.00
N27    N     0.54253   0.50075   0.00028   0.00000  Uiso   1.00
C154   C     0.56123   0.52449   0.00027   0.00000  Uiso   1.00
C155   C     0.59060   0.51585   0.00028   0.00000  Uiso   1.00
C156   C     0.59060   0.48565   0.00028   0.00000  Uiso   1.00
N28    N     0.50040   0.54288   0.00027   0.00000  Uiso   1.00
C157   C     0.52414   0.56158   0.00027   0.00000  Uiso   1.00
N29    N     0.55263   0.55298   0.00027   0.00000  Uiso   1.00
C158   C     0.51550   0.59095   0.00026   0.00000  Uiso   1.00
C159   C     0.48530   0.59095   0.00027   0.00000  Uiso   1.00
C160   C     0.47665   0.56158   0.00027   0.00000  Uiso   1.00
C161   C     0.61685   0.46915   0.00028   0.00000  Uiso   1.00
C162   C     0.64403   0.48484   0.00028   0.00000  Uiso   1.00
C163   C     0.64403   0.51667   0.00028   0.00000  Uiso   1.00
C164   C     0.61685   0.53236   0.00028   0.00000  Uiso   1.00
C165   C     0.46880   0.61720   0.00026   0.00000  Uiso   1.00
C166   C     0.48449   0.64438   0.00026   0.00000  Uiso   1.00
C167   C     0.51632   0.64438   0.00026   0.00000  Uiso   1.00
C168   C     0.53201   0.61720   0.00026   0.00000  Uiso   1.00
N30    N     0.45826   0.50075   0.00028   0.00000  Uiso   1.00
C169   C     0.43956   0.52449   0.00028   0.00000  Uiso   1.00
N31    N     0.44817   0.55297   0.00028   0.00000  Uiso   1.00
C170   C     0.41019   0.51585   0.00029   0.00000  Uiso   1.00
C171   C     0.41019   0.48564   0.00029   0.00000  Uiso   1.00
C172   C     0.43956   0.47700   0.00029   0.00000  Uiso   1.00
C173   C     0.38394   0.46914   0.00029   0.00000  Uiso   1.00
C174   C     0.35676   0.48483   0.00029   0.00000  Uiso   1.00
C175   C     0.35676   0.51667   0.00029   0.00000  Uiso   1.00
C176   C     0.38395   0.53235   0.00029   0.00000  Uiso   1.00
N32    N     0.44817   0.44852   0.00028   0.00000  Uiso   1.00
H49    H     0.44471   0.38494   0.00028   0.00000  Uiso   1.00
H50    H     0.55609   0.38495   0.00027   0.00000  Uiso   1.00
H51    H     0.61620   0.44506   0.00028   0.00000  Uiso   1.00
H52    H     0.61619   0.55644   0.00028   0.00000  Uiso   1.00
H53    H     0.44471   0.61654   0.00026   0.00000  Uiso   1.00
H54    H     0.55609   0.61654   0.00026   0.00000  Uiso   1.00
H55    H     0.38459   0.44506   0.00029   0.00000  Uiso   1.00
H56    H     0.38461   0.55644   0.00029   0.00000  Uiso   1.00
C177   C     0.32965   0.46941   0.00029   0.00000  Uiso   1.00
C178   C     0.30281   0.48506   0.00029   0.00000  Uiso   1.00
C179   C     0.30282   0.51646   0.00029   0.00000  Uiso   1.00
C180   C     0.32966   0.53210   0.00029   0.00000  Uiso   1.00
C181   C     0.46905   0.33000   0.00027   0.00000  Uiso   1.00
C182   C     0.48470   0.30316   0.00026   0.00000  Uiso   1.00
C183   C     0.51610   0.30317   0.00026   0.00000  Uiso   1.00
C184   C     0.53175   0.33000   0.00027   0.00000  Uiso   1.00
C185   C     0.67114   0.46941   0.00028   0.00000  Uiso   1.00
C186   C     0.69798   0.48506   0.00028   0.00000  Uiso   1.00
C187   C     0.69797   0.51646   0.00028   0.00000  Uiso   1.00
C188   C     0.67114   0.53211   0.00028   0.00000  Uiso   1.00
C189   C     0.46906   0.67149   0.00025   0.00000  Uiso   1.00
C190   C     0.48471   0.69833   0.00025   0.00000  Uiso   1.00
C191   C     0.51611   0.69833   0.00025   0.00000  Uiso   1.00
C192   C     0.53175   0.67149   0.00025   0.00000  Uiso   1.00
H57    H     0.32927   0.44531   0.00029   0.00000  Uiso   1.00
O25    O     0.27579   0.46981   0.00029   0.00000  Uiso   1.00
O26    O     0.27580   0.53171   0.00029   0.00000  Uiso   1.00
H58    H     0.32929   0.55619   0.00029   0.00000  Uiso   1.00
H59    H     0.44496   0.32962   0.00027   0.00000  Uiso   1.00
O27    O     0.46946   0.27614   0.00026   0.00000  Uiso   1.00
O28    O     0.53135   0.27615   0.00026   0.00000  Uiso   1.00
H60    H     0.55584   0.32964   0.00027   0.00000  Uiso   1.00
H61    H     0.67152   0.44532   0.00028   0.00000  Uiso   1.00
O29    O     0.72500   0.46982   0.00029   0.00000  Uiso   1.00
O30    O     0.72500   0.53172   0.00029   0.00000  Uiso   1.00
H62    H     0.67151   0.55620   0.00028   0.00000  Uiso   1.00
H63    H     0.44497   0.67186   0.00026   0.00000  Uiso   1.00
O31    O     0.46947   0.72535   0.00025   0.00000  Uiso   1.00
O32    O     0.53136   0.72535   0.00025   0.00000  Uiso   1.00
H64    H     0.55585   0.67186   0.00026   0.00000  Uiso   1.00
Ni4    Ni    0.50040   0.50075   0.00028   0.00000  Uiso   1.00
C193   C     0.00045   0.38428   0.46868   0.00000  Uiso   1.00
C194   C     0.00045   0.35709   0.48437   0.00000  Uiso   1.00
C195   C     0.00045   0.35710   0.51620   0.00000  Uiso   1.00
C196   C     0.00045   0.38428   0.53189   0.00000  Uiso   1.00
C197   C     0.00045   0.41053   0.51539   0.00000  Uiso   1.00
C198   C     0.00045   0.41052   0.48518   0.00000  Uiso   1.00
C199   C     0.00045   0.43989   0.47654   0.00000  Uiso   1.00
N33    N     0.00045   0.45859   0.50029   0.00000  Uiso   1.00
C200   C     0.00045   0.43989   0.52403   0.00000  Uiso   1.00
N34    N     0.00044   0.44850   0.55252   0.00000  Uiso   1.00
C201   C     0.00044   0.47699   0.56113   0.00000  Uiso   1.00
N35    N     0.00044   0.50073   0.54242   0.00000  Uiso   1.00
C202   C     0.00044   0.52448   0.56113   0.00000  Uiso   1.00
C203   C     0.00043   0.51584   0.59049   0.00000  Uiso   1.00
C204   C     0.00043   0.48563   0.59049   0.00000  Uiso   1.00
N36    N     0.00044   0.54286   0.50029   0.00000  Uiso   1.00
C205   C     0.00044   0.56157   0.52404   0.00000  Uiso   1.00
N37    N     0.00044   0.55296   0.55252   0.00000  Uiso   1.00
C206   C     0.00044   0.59093   0.51540   0.00000  Uiso   1.00
C207   C     0.00044   0.59093   0.48519   0.00000  Uiso   1.00
C208   C     0.00044   0.56157   0.47655   0.00000  Uiso   1.00
C209   C     0.00043   0.46913   0.61674   0.00000  Uiso   1.00
C210   C     0.00042   0.48482   0.64393   0.00000  Uiso   1.00
C211   C     0.00042   0.51666   0.64392   0.00000  Uiso   1.00
C212   C     0.00043   0.53234   0.61674   0.00000  Uiso   1.00
C213   C     0.00044   0.61718   0.46869   0.00000  Uiso   1.00
C214   C     0.00044   0.64436   0.48438   0.00000  Uiso   1.00
C215   C     0.00044   0.64436   0.51621   0.00000  Uiso   1.00
C216   C     0.00044   0.61718   0.53190   0.00000  Uiso   1.00
N38    N     0.00045   0.50073   0.45815   0.00000  Uiso   1.00
C217   C     0.00045   0.52447   0.43945   0.00000  Uiso   1.00
N39    N     0.00044   0.55296   0.44806   0.00000  Uiso   1.00
C218   C     0.00045   0.51583   0.41009   0.00000  Uiso   1.00
C219   C     0.00045   0.48563   0.41008   0.00000  Uiso   1.00
C220   C     0.00045   0.47698   0.43945   0.00000  Uiso   1.00
C221   C     0.00044   0.46913   0.38383   0.00000  Uiso   1.00
C222   C     0.00043   0.48482   0.35665   0.00000  Uiso   1.00
C223   C     0.00043   0.51665   0.35666   0.00000  Uiso   1.00
C224   C     0.00044   0.53234   0.38384   0.00000  Uiso   1.00
N40    N     0.00045   0.44850   0.44806   0.00000  Uiso   1.00
H65    H     0.00045   0.38493   0.44460   0.00000  Uiso   1.00
H66    H     0.00045   0.38493   0.55598   0.00000  Uiso   1.00
H67    H     0.00043   0.44505   0.61609   0.00000  Uiso   1.00
H68    H     0.00042   0.55643   0.61608   0.00000  Uiso   1.00
H69    H     0.00044   0.61653   0.44460   0.00000  Uiso   1.00
H70    H     0.00044   0.61653   0.55598   0.00000  Uiso   1.00
H71    H     0.00044   0.44504   0.38448   0.00000  Uiso   1.00
H72    H     0.00044   0.55642   0.38450   0.00000  Uiso   1.00
C225   C     0.00043   0.46939   0.32954   0.00000  Uiso   1.00
C226   C     0.00042   0.48504   0.30271   0.00000  Uiso   1.00
C227   C     0.00042   0.51644   0.30271   0.00000  Uiso   1.00
C228   C     0.00043   0.53208   0.32955   0.00000  Uiso   1.00
C229   C     0.00045   0.32998   0.46894   0.00000  Uiso   1.00
C230   C     0.00045   0.30315   0.48459   0.00000  Uiso   1.00
C231   C     0.00045   0.30315   0.51599   0.00000  Uiso   1.00
C232   C     0.00045   0.32999   0.53163   0.00000  Uiso   1.00
C233   C     0.00042   0.46940   0.67104   0.00000  Uiso   1.00
C234   C     0.00041   0.48505   0.69787   0.00000  Uiso   1.00
C235   C     0.00041   0.51645   0.69787   0.00000  Uiso   1.00
C236   C     0.00042   0.53209   0.67103   0.00000  Uiso   1.00
C237   C     0.00044   0.67147   0.46895   0.00000  Uiso   1.00
C238   C     0.00044   0.69831   0.48460   0.00000  Uiso   1.00
C239   C     0.00044   0.69831   0.51600   0.00000  Uiso   1.00
C240   C     0.00044   0.67148   0.53164   0.00000  Uiso   1.00
H73    H     0.00043   0.44530   0.32916   0.00000  Uiso   1.00
O33    O     0.00042   0.46980   0.27568   0.00000  Uiso   1.00
O34    O     0.00042   0.53169   0.27569   0.00000  Uiso   1.00
H74    H     0.00043   0.55618   0.32918   0.00000  Uiso   1.00
H75    H     0.00045   0.32961   0.44485   0.00000  Uiso   1.00
O35    O     0.00045   0.27612   0.46934   0.00000  Uiso   1.00
O36    O     0.00045   0.27613   0.53123   0.00000  Uiso   1.00
H76    H     0.00045   0.32962   0.55573   0.00000  Uiso   1.00
H77    H     0.00042   0.44530   0.67141   0.00000  Uiso   1.00
O37    O     0.00041   0.46981   0.72490   0.00000  Uiso   1.00
O38    O     0.00041   0.53170   0.72489   0.00000  Uiso   1.00
H78    H     0.00042   0.55618   0.67140   0.00000  Uiso   1.00
H79    H     0.00044   0.67184   0.44485   0.00000  Uiso   1.00
O39    O     0.00043   0.72533   0.46935   0.00000  Uiso   1.00
O40    O     0.00043   0.72533   0.53124   0.00000  Uiso   1.00
H80    H     0.00044   0.67185   0.55574   0.00000  Uiso   1.00
Ni5    Ni    0.00045   0.50073   0.50029   0.00000  Uiso   1.00
C241   C     0.46883   0.00078   0.38379   0.00000  Uiso   1.00
C242   C     0.48451   0.00078   0.35661   0.00000  Uiso   1.00
C243   C     0.51635   0.00078   0.35661   0.00000  Uiso   1.00
C244   C     0.53203   0.00078   0.38380   0.00000  Uiso   1.00
C245   C     0.51553   0.00078   0.41004   0.00000  Uiso   1.00
C246   C     0.48533   0.00079   0.41004   0.00000  Uiso   1.00
C247   C     0.47669   0.00079   0.43941   0.00000  Uiso   1.00
N41    N     0.50043   0.00079   0.45811   0.00000  Uiso   1.00
C248   C     0.52418   0.00078   0.43941   0.00000  Uiso   1.00
N42    N     0.55266   0.00078   0.44802   0.00000  Uiso   1.00
C249   C     0.56127   0.00078   0.47650   0.00000  Uiso   1.00
N43    N     0.54257   0.00078   0.50025   0.00000  Uiso   1.00
C250   C     0.56127   0.00078   0.52399   0.00000  Uiso   1.00
C251   C     0.59064   0.00077   0.51535   0.00000  Uiso   1.00
C252   C     0.59064   0.00077   0.48514   0.00000  Uiso   1.00
N44    N     0.50043   0.00078   0.54238   0.00000  Uiso   1.00
C253   C     0.52418   0.00078   0.56108   0.00000  Uiso   1.00
N45    N     0.55266   0.00077   0.55247   0.00000  Uiso   1.00
C254   C     0.51554   0.00077   0.59045   0.00000  Uiso   1.00
C255   C     0.48533   0.00078   0.59045   0.00000  Uiso   1.00
C256   C     0.47669   0.00078   0.56108   0.00000  Uiso   1.00
C257   C     0.61688   0.00077   0.46864   0.00000  Uiso   1.00
C258   C     0.64407   0.00076   0.48433   0.00000  Uiso   1.00
C259   C     0.64407   0.00076   0.51617   0.00000  Uiso   1.00
C260   C     0.61688   0.00076   0.53185   0.00000  Uiso   1.00
C261   C     0.46883   0.00077   0.61670   0.00000  Uiso   1.00
C262   C     0.48452   0.00077   0.64388   0.00000  Uiso   1.00
C263   C     0.51636   0.00077   0.64388   0.00000  Uiso   1.00
C264   C     0.53204   0.00077   0.61669   0.00000  Uiso   1.00
N46    N     0.45830   0.00079   0.50024   0.00000  Uiso   1.00
C265   C     0.43960   0.00078   0.52399   0.00000  Uiso   1.00
N47    N     0.44821   0.00078   0.55247   0.00000  Uiso   1.00
C266   C     0.41023   0.00078   0.51535   0.00000  Uiso   1.00
C267   C     0.41023   0.00078   0.48514   0.00000  Uiso   1.00
C268   C     0.43959   0.00079   0.47650   0.00000  Uiso   1.00
C269   C     0.38398   0.00078   0.46864   0.00000  Uiso   1.00
C270   C     0.35680   0.00077   0.48433   0.00000  Uiso   1.00
C271   C     0.35680   0.00077   0.51616   0.00000  Uiso   1.00
C272   C     0.38398   0.00078   0.53185   0.00000  Uiso   1.00
N48    N     0.44820   0.00079   0.44801   0.00000  Uiso   1.00
H81    H     0.44474   0.00078   0.38444   0.00000  Uiso   1.00
H82    H     0.55612   0.00078   0.38445   0.00000  Uiso   1.00
H83    H     0.61623   0.00077   0.44456   0.00000  Uiso   1.00
H84    H     0.61623   0.00076   0.55594   0.00000  Uiso   1.00
H85    H     0.44475   0.00077   0.61604   0.00000  Uiso   1.00
H86    H     0.55613   0.00077   0.61604   0.00000  Uiso   1.00
H87    H     0.38463   0.00078   0.44455   0.00000  Uiso   1.00
H88    H     0.38464   0.00077   0.55593   0.00000  Uiso   1.00
C273   C     0.32968   0.00077   0.46890   0.00000  Uiso   1.00
C274   C     0.30285   0.00076   0.48455   0.00000  Uiso   1.00
C275   C     0.30285   0.00076   0.51595   0.00000  Uiso   1.00
C276   C     0.32969   0.00076   0.53159   0.00000  Uiso   1.00
C277   C     0.46909   0.00077   0.32950   0.00000  Uiso   1.00
C278   C     0.48473   0.00077   0.30266   0.00000  Uiso   1.00
C279   C     0.51613   0.00077   0.30267   0.00000  Uiso   1.00
C280   C     0.53178   0.00077   0.32950   0.00000  Uiso   1.00
C281   C     0.67118   0.00076   0.46890   0.00000  Uiso   1.00
C282   C     0.69801   0.00075   0.48455   0.00000  Uiso   1.00
C283   C     0.69801   0.00075   0.51595   0.00000  Uiso   1.00
C284   C     0.67118   0.00076   0.53160   0.00000  Uiso   1.00
C285   C     0.46909   0.00076   0.67099   0.00000  Uiso   1.00
C286   C     0.48474   0.00076   0.69782   0.00000  Uiso   1.00
C287   C     0.51614   0.00076   0.69782   0.00000  Uiso   1.00
C288   C     0.53179   0.00076   0.67099   0.00000  Uiso   1.00
H89    H     0.32931   0.00077   0.44480   0.00000  Uiso   1.00
O41    O     0.27582   0.00075   0.46930   0.00000  Uiso   1.00
O42    O     0.27583   0.00075   0.53119   0.00000  Uiso   1.00
H90    H     0.32932   0.00076   0.55569   0.00000  Uiso   1.00
H91    H     0.44499   0.00077   0.32912   0.00000  Uiso   1.00
O43    O     0.46949   0.00077   0.27564   0.00000  Uiso   1.00
O44    O     0.53138   0.00077   0.27564   0.00000  Uiso   1.00
H92    H     0.55587   0.00077   0.32913   0.00000  Uiso   1.00
H93    H     0.67155   0.00076   0.44481   0.00000  Uiso   1.00
O45    O     0.72504   0.00074   0.46931   0.00000  Uiso   1.00
O46    O     0.72504   0.00075   0.53120   0.00000  Uiso   1.00
H94    H     0.67155   0.00076   0.55569   0.00000  Uiso   1.00
H95    H     0.44500   0.00076   0.67136   0.00000  Uiso   1.00
O47    O     0.46950   0.00076   0.72485   0.00000  Uiso   1.00
O48    O     0.53139   0.00076   0.72485   0.00000  Uiso   1.00
H96    H     0.55588   0.00076   0.67136   0.00000  Uiso   1.00
Ni6    Ni    0.50043   0.00078   0.50025   0.00000  Uiso   1.00
Zn1    Zn    0.00044   0.25073   0.50029   0.00000  Uiso   1.00
Zn2    Zn    0.75043   0.00074   0.50026   0.00000  Uiso   1.00
Zn3    Zn    0.00043   0.75073   0.50030   0.00000  Uiso   1.00
Zn4    Zn    0.25043   0.00075   0.50025   0.00000  Uiso   1.00
Zn5    Zn    0.50044   0.00076   0.25024   0.00000  Uiso   1.00
Zn6    Zn    0.00041   0.50075   0.25029   0.00000  Uiso   1.00
Zn7    Zn    0.50045   0.00076   0.75024   0.00000  Uiso   1.00
Zn8    Zn    0.00040   0.50076   0.75029   0.00000  Uiso   1.00
Zn9    Zn    0.25040   0.50077   0.00029   0.00000  Uiso   1.00
Zn10   Zn    0.50041   0.25075   0.00026   0.00000  Uiso   1.00
Zn11   Zn    0.75040   0.50077   0.00029   0.00000  Uiso   1.00
Zn12   Zn    0.50042   0.75075   0.00025   0.00000  Uiso   1.00
loop_
_geom_bond_atom_site_label_1
_geom_bond_atom_site_label_2
_geom_bond_distance
_geom_bond_site_symmetry_2
_ccdc_geom_bond_type
C1     C2      1.412   .     A
C1     C6      1.394   .     A
C1     H1      1.084   .     S
C2     C3      1.432   1_655 A
C2     C37     1.403   .     A
C3     C2      1.432   1_455 A
C3     C4      1.411   .     A
C3     C40     1.403   .     A
C4     C5      1.394   .     A
C4     H2      1.084   .     S
C5     C6      1.358   1_455 A
C5     C8      1.377   .     A
C6     C5      1.358   1_655 A
C6     C7      1.377   .     A
C7     N1      1.359   1_655 A
C7     N8      1.338   .     A
N1     C7      1.359   1_455 A
N1     C8      1.359   .     A
N1     Ni1     1.895   1_565 S
C8     N2      1.338   .     A
N2     C9      1.338   .     A
C9     N3      1.359   1_565 A
C9     C12     1.377   .     A
N3     C9      1.359   1_545 A
N3     C10     1.359   .     A
N3     Ni1     1.895   .     S
C10    C11     1.377   .     A
C10    N5      1.338   .     A
C11    C12     1.358   1_545 A
C11    C20     1.394   .     A
C12    C11     1.358   1_565 A
C12    C17     1.394   .     A
N4     C13     1.359   .     A
N4     C16     1.359   1_455 A
N4     Ni1     1.895   .     S
C13    N5      1.338   .     A
C13    C14     1.377   .     A
C14    C15     1.358   1_455 A
C14    C24     1.394   .     A
C15    C14     1.358   1_655 A
C15    C16     1.377   .     A
C15    C21     1.394   .     A
C16    N4      1.359   1_655 A
C16    N7      1.338   .     A
C17    C18     1.412   .     A
C17    H3      1.084   .     S
C18    C19     1.432   1_565 A
C18    C41     1.403   .     A
C19    C18     1.432   1_545 A
C19    C20     1.411   .     A
C19    C44     1.403   .     A
C20    H4      1.084   .     S
C21    C22     1.412   .     A
C21    H5      1.084   .     S
C22    C23     1.432   1_655 A
C22    C45     1.403   .     A
C23    C22     1.432   1_455 A
C23    C24     1.412   .     A
C23    C48     1.403   .     A
C24    H6      1.084   .     S
N6     C25     1.359   .     A
N6     C28     1.359   1_545 A
N6     Ni1     1.895   1_655 S
C25    N7      1.338   .     A
C25    C26     1.377   .     A
C26    C27     1.358   1_545 A
C26    C32     1.394   .     A
C27    C26     1.358   1_565 A
C27    C28     1.377   .     A
C27    C29     1.394   .     A
C28    N6      1.359   1_565 A
C28    N8      1.338   .     A
C29    C30     1.412   .     A
C29    H7      1.084   .     S
C30    C31     1.432   1_565 A
C30    C33     1.403   .     A
C31    C30     1.432   1_545 A
C31    C32     1.411   .     A
C31    C36     1.403   .     A
C32    H8      1.084   .     S
C33    C34     1.397   .     A
C33    H9      1.084   .     S
C34    C35     1.412   1_565 A
C34    O1      1.395   .     S
C35    C34     1.412   1_545 A
C35    C36     1.397   .     A
C35    O2      1.395   .     S
C36    H10     1.084   .     S
C37    C38     1.397   .     A
C37    H11     1.084   .     S
C38    C39     1.412   1_655 A
C38    O3      1.395   .     S
C39    C38     1.412   1_455 A
C39    C40     1.397   .     A
C39    O4      1.395   .     S
C40    H12     1.084   .     S
C41    C42     1.397   .     A
C41    H13     1.084   .     S
C42    C43     1.412   1_565 A
C42    O5      1.395   .     S
C43    C42     1.412   1_545 A
C43    C44     1.397   .     A
C43    O6      1.395   .     S
C44    H14     1.084   .     S
C45    C46     1.397   .     A
C45    H15     1.084   .     S
C46    C47     1.412   1_655 A
C46    O7      1.395   .     S
C47    C46     1.412   1_455 A
C47    C48     1.397   .     A
C47    O8      1.395   .     S
C48    H16     1.084   .     S
O1     Zn2     1.800   1_565 S
O2     Zn2     1.800   .     S
O3     Zn3     1.800   1_655 S
O4     Zn3     1.800   .     S
O5     Zn4     1.800   1_565 S
O6     Zn4     1.800   .     S
O7     Zn1     1.800   1_655 S
O8     Zn1     1.800   .     S
Ni1    N6      1.895   1_455 S
Ni1    N1      1.895   1_545 S
C49    C50     1.411   .     A
C49    C54     1.394   .     A
C49    H17     1.084   .     S
C50    C51     1.432   1_554 A
C50    C85     1.403   .     A
C51    C50     1.432   1_556 A
C51    C52     1.412   .     A
C51    C88     1.403   .     A
C52    C53     1.394   .     A
C52    H18     1.084   .     S
C53    C54     1.358   1_556 A
C53    C56     1.377   .     A
C54    C53     1.358   1_554 A
C54    C55     1.377   .     A
C55    N9      1.359   .     A
C55    N16     1.338   .     A
N9     C56     1.359   1_554 A
N9     Ni2     1.895   .     S
C56    N9      1.359   1_556 A
C56    N10     1.338   .     A
N10    C57     1.338   .     A
C57    N11     1.359   .     A
C57    C60     1.377   .     A
N11    C58     1.359   1_545 A
N11    Ni2     1.895   1_556 S
C58    N11     1.359   1_565 A
C58    C59     1.377   .     A
C58    N13     1.338   .     A
C59    C60     1.358   1_565 A
C59    C68     1.394   .     A
C60    C59     1.358   1_545 A
C60    C65     1.394   .     A
N12    C61     1.359   1_554 A
N12    C64     1.359   .     A
N12    Ni2     1.895   1_565 S
C61    N12     1.359   1_556 A
C61    N13     1.338   .     A
C61    C62     1.377   .     A
C62    C63     1.358   1_556 A
C62    C72     1.394   .     A
C63    C62     1.358   1_554 A
C63    C64     1.377   .     A
C63    C69     1.394   .     A
C64    N15     1.338   .     A
C65    C66     1.411   .     A
C65    H19     1.084   .     S
C66    C67     1.432   1_545 A
C66    C89     1.403   .     A
C67    C66     1.432   1_565 A
C67    C68     1.412   .     A
C67    C92     1.403   .     A
C68    H20     1.084   .     S
C69    C70     1.412   .     A
C69    H21     1.084   .     S
C70    C71     1.432   1_554 A
C70    C93     1.403   .     A
C71    C70     1.432   1_556 A
C71    C72     1.412   .     A
C71    C96     1.403   .     A
C72    H22     1.084   .     S
N14    C73     1.359   1_545 A
N14    C76     1.359   .     A
N14    Ni2     1.895   .     S
C73    N14     1.359   1_565 A
C73    N15     1.338   .     A
C73    C74     1.377   .     A
C74    C75     1.358   1_565 A
C74    C80     1.394   .     A
C75    C74     1.358   1_545 A
C75    C76     1.377   .     A
C75    C77     1.394   .     A
C76    N16     1.338   .     A
C77    C78     1.411   .     A
C77    H23     1.084   .     S
C78    C79     1.432   1_545 A
C78    C81     1.403   .     A
C79    C78     1.432   1_565 A
C79    C80     1.412   .     A
C79    C84     1.403   .     A
C80    H24     1.084   .     S
C81    C82     1.397   .     A
C81    H25     1.084   .     S
C82    C83     1.412   1_545 A
C82    O9      1.395   .     S
C83    C82     1.412   1_565 A
C83    C84     1.397   .     A
C83    O10     1.395   .     S
C84    H26     1.084   .     S
C85    C86     1.397   .     A
C85    H27     1.084   .     S
C86    C87     1.412   1_554 A
C86    O11     1.395   .     S
C87    C86     1.412   1_556 A
C87    C88     1.397   .     A
C87    O12     1.395   .     S
C88    H28     1.084   .     S
C89    C90     1.397   .     A
C89    H29     1.084   .     S
C90    C91     1.412   1_545 A
C90    O13     1.395   .     S
C91    C90     1.412   1_565 A
C91    C92     1.397   .     A
C91    O14     1.395   .     S
C92    H30     1.084   .     S
C93    C94     1.397   .     A
C93    H31     1.084   .     S
C94    C95     1.412   1_554 A
C94    O15     1.395   .     S
C95    C94     1.412   1_556 A
C95    C96     1.397   .     A
C95    O16     1.395   .     S
C96    H32     1.084   .     S
O9     Zn5     1.800   .     S
O10    Zn5     1.800   1_565 S
O11    Zn10    1.800   .     S
O12    Zn10    1.800   1_556 S
O13    Zn7     1.800   .     S
O14    Zn7     1.800   1_565 S
O15    Zn12    1.800   .     S
O16    Zn12    1.800   1_556 S
Ni2    N11     1.895   1_554 S
Ni2    N12     1.895   1_545 S
C97    C98     1.412   .     A
C97    C102    1.394   .     A
C97    H33     1.084   .     S
C98    C99     1.432   1_455 A
C98    C133    1.403   .     A
C99    C98     1.432   1_655 A
C99    C100    1.412   .     A
C99    C136    1.403   .     A
C100   C101    1.394   .     A
C100   H34     1.084   .     S
C101   C102    1.358   1_655 A
C101   C104    1.377   .     A
C102   C101    1.358   1_455 A
C102   C103    1.377   .     A
C103   N17     1.359   .     A
C103   N24     1.338   .     A
N17    C104    1.359   1_455 A
N17    Ni3     1.895   .     S
C104   N17     1.359   1_655 A
C104   N18     1.338   .     A
N18    C105    1.338   .     A
C105   N19     1.359   .     A
C105   C108    1.377   .     A
N19    C106    1.359   1_554 A
N19    Ni3     1.895   1_655 S
C106   N19     1.359   1_556 A
C106   C107    1.377   .     A
C106   N21     1.338   .     A
C107   C108    1.358   1_556 A
C107   C116    1.394   .     A
C108   C107    1.358   1_554 A
C108   C113    1.394   .     A
N20    C109    1.359   1_455 A
N20    C112    1.359   .     A
N20    Ni3     1.895   1_556 S
C109   N20     1.359   1_655 A
C109   N21     1.338   .     A
C109   C110    1.377   .     A
C110   C111    1.358   1_655 A
C110   C120    1.394   .     A
C111   C110    1.358   1_455 A
C111   C112    1.377   .     A
C111   C117    1.394   .     A
C112   N23     1.338   .     A
C113   C114    1.412   .     A
C113   H35     1.084   .     S
C114   C115    1.432   1_554 A
C114   C137    1.403   .     A
C115   C114    1.432   1_556 A
C115   C116    1.412   .     A
C115   C140    1.403   .     A
C116   H36     1.084   .     S
C117   C118    1.411   .     A
C117   H37     1.084   .     S
C118   C119    1.432   1_455 A
C118   C141    1.403   .     A
C119   C118    1.432   1_655 A
C119   C120    1.412   .     A
C119   C144    1.403   .     A
C120   H38     1.084   .     S
N22    C121    1.359   1_554 A
N22    C124    1.359   .     A
N22    Ni3     1.895   .     S
C121   N22     1.359   1_556 A
C121   N23     1.338   .     A
C121   C122    1.377   .     A
C122   C123    1.358   1_556 A
C122   C128    1.394   .     A
C123   C122    1.358   1_554 A
C123   C124    1.377   .     A
C123   C125    1.394   .     A
C124   N24     1.338   .     A
C125   C126    1.412   .     A
C125   H39     1.084   .     S
C126   C127    1.432   1_554 A
C126   C129    1.403   .     A
C127   C126    1.432   1_556 A
C127   C128    1.412   .     A
C127   C132    1.403   .     A
C128   H40     1.084   .     S
C129   C130    1.397   .     A
C129   H41     1.084   .     S
C130   C131    1.412   1_554 A
C130   O17     1.395   .     S
C131   C130    1.412   1_556 A
C131   C132    1.397   .     A
C131   O18     1.395   .     S
C132   H42     1.084   .     S
C133   C134    1.397   .     A
C133   H43     1.084   .     S
C134   C135    1.412   1_455 A
C134   O19     1.395   .     S
C135   C134    1.412   1_655 A
C135   C136    1.397   .     A
C135   O20     1.395   .     S
C136   H44     1.084   .     S
C137   C138    1.397   .     A
C137   H45     1.084   .     S
C138   C139    1.412   1_554 A
C138   O21     1.395   .     S
C139   C138    1.412   1_556 A
C139   C140    1.397   .     A
C139   O22     1.395   .     S
C140   H46     1.084   .     S
C141   C142    1.397   .     A
C141   H47     1.084   .     S
C142   C143    1.412   1_455 A
C142   O23     1.395   .     S
C143   C142    1.412   1_655 A
C143   C144    1.397   .     A
C143   O24     1.395   .     S
C144   H48     1.084   .     S
O17    Zn9     1.800   .     S
O18    Zn9     1.800   1_556 S
O19    Zn6     1.800   .     S
O20    Zn6     1.800   1_655 S
O21    Zn11    1.800   .     S
O22    Zn11    1.800   1_556 S
O23    Zn8     1.800   .     S
O24    Zn8     1.800   1_655 S
Ni3    N20     1.895   1_554 S
Ni3    N19     1.895   1_455 S
C145   C146    1.412   .     A
C145   C150    1.394   .     A
C145   H49     1.084   .     S
C146   C147    1.432   .     A
C146   C181    1.403   .     A
C147   C148    1.411   .     A
C147   C184    1.403   .     A
C148   C149    1.394   .     A
C148   H50     1.084   .     S
C149   C150    1.358   .     A
C149   C152    1.377   .     A
C150   C151    1.377   .     A
C151   N25     1.359   .     A
C151   N32     1.338   .     A
N25    C152    1.359   .     A
N25    Ni4     1.895   .     S
C152   N26     1.338   .     A
N26    C153    1.338   .     A
C153   N27     1.359   .     A
C153   C156    1.377   .     A
N27    C154    1.359   .     A
N27    Ni4     1.895   .     S
C154   C155    1.377   .     A
C154   N29     1.338   .     A
C155   C156    1.358   .     A
C155   C164    1.394   .     A
C156   C161    1.394   .     A
N28    C157    1.359   .     A
N28    C160    1.359   .     A
N28    Ni4     1.895   .     S
C157   N29     1.338   .     A
C157   C158    1.377   .     A
C158   C159    1.358   .     A
C158   C168    1.394   .     A
C159   C160    1.377   .     A
C159   C165    1.394   .     A
C160   N31     1.338   .     A
C161   C162    1.412   .     A
C161   H51     1.084   .     S
C162   C163    1.432   .     A
C162   C185    1.403   .     A
C163   C164    1.411   .     A
C163   C188    1.403   .     A
C164   H52     1.084   .     S
C165   C166    1.412   .     A
C165   H53     1.084   .     S
C166   C167    1.432   .     A
C166   C189    1.403   .     A
C167   C168    1.411   .     A
C167   C192    1.403   .     A
C168   H54     1.084   .     S
N30    C169    1.359   .     A
N30    C172    1.359   .     A
N30    Ni4     1.895   .     S
C169   N31     1.338   .     A
C169   C170    1.377   .     A
C170   C171    1.358   .     A
C170   C176    1.394   .     A
C171   C172    1.377   .     A
C171   C173    1.394   .     A
C172   N32     1.338   .     A
C173   C174    1.412   .     A
C173   H55     1.084   .     S
C174   C175    1.432   .     A
C174   C177    1.403   .     A
C175   C176    1.411   .     A
C175   C180    1.403   .     A
C176   H56     1.084   .     S
C177   C178    1.397   .     A
C177   H57     1.084   .     S
C178   C179    1.412   .     A
C178   O25     1.395   .     S
C179   C180    1.397   .     A
C179   O26     1.395   .     S
C180   H58     1.084   .     S
C181   C182    1.397   .     A
C181   H59     1.084   .     S
C182   C183    1.412   .     A
C182   O27     1.395   .     S
C183   C184    1.397   .     A
C183   O28     1.395   .     S
C184   H60     1.084   .     S
C185   C186    1.397   .     A
C185   H61     1.084   .     S
C186   C187    1.412   .     A
C186   O29     1.395   .     S
C187   C188    1.397   .     A
C187   O30     1.395   .     S
C188   H62     1.084   .     S
C189   C190    1.397   .     A
C189   H63     1.084   .     S
C190   C191    1.412   .     A
C190   O31     1.395   .     S
C191   C192    1.397   .     A
C191   O32     1.395   .     S
C192   H64     1.084   .     S
O25    Zn9     1.800   .     S
O26    Zn9     1.800   .     S
O27    Zn10    1.800   .     S
O28    Zn10    1.800   .     S
O29    Zn11    1.800   .     S
O30    Zn11    1.800   .     S
O31    Zn12    1.800   .     S
O32    Zn12    1.800   .     S
C193   C194    1.412   .     A
C193   C198    1.394   .     A
C193   H65     1.084   .     S
C194   C195    1.432   .     A
C194   C229    1.403   .     A
C195   C196    1.412   .     A
C195   C232    1.403   .     A
C196   C197    1.394   .     A
C196   H66     1.084   .     S
C197   C198    1.358   .     A
C197   C200    1.377   .     A
C198   C199    1.377   .     A
C199   N33     1.359   .     A
C199   N40     1.338   .     A
N33    C200    1.359   .     A
N33    Ni5     1.895   .     S
C200   N34     1.338   .     A
N34    C201    1.338   .     A
C201   N35     1.359   .     A
C201   C204    1.377   .     A
N35    C202    1.359   .     A
N35    Ni5     1.895   .     S
C202   C203    1.377   .     A
C202   N37     1.338   .     A
C203   C204    1.358   .     A
C203   C212    1.394   .     A
C204   C209    1.394   .     A
N36    C205    1.359   .     A
N36    C208    1.359   .     A
N36    Ni5     1.895   .     S
C205   N37     1.338   .     A
C205   C206    1.377   .     A
C206   C207    1.358   .     A
C206   C216    1.394   .     A
C207   C208    1.377   .     A
C207   C213    1.394   .     A
C208   N39     1.338   .     A
C209   C210    1.412   .     A
C209   H67     1.084   .     S
C210   C211    1.432   .     A
C210   C233    1.403   .     A
C211   C212    1.411   .     A
C211   C236    1.403   .     A
C212   H68     1.084   .     S
C213   C214    1.412   .     A
C213   H69     1.084   .     S
C214   C215    1.432   .     A
C214   C237    1.403   .     A
C215   C216    1.412   .     A
C215   C240    1.403   .     A
C216   H70     1.084   .     S
N38    C217    1.359   .     A
N38    C220    1.359   .     A
N38    Ni5     1.895   .     S
C217   N39     1.338   .     A
C217   C218    1.377   .     A
C218   C219    1.358   .     A
C218   C224    1.394   .     A
C219   C220    1.377   .     A
C219   C221    1.394   .     A
C220   N40     1.338   .     A
C221   C222    1.412   .     A
C221   H71     1.084   .     S
C222   C223    1.432   .     A
C222   C225    1.403   .     A
C223   C224    1.411   .     A
C223   C228    1.403   .     A
C224   H72     1.084   .     S
C225   C226    1.397   .     A
C225   H73     1.084   .     S
C226   C227    1.412   .     A
C226   O33     1.395   .     S
C227   C228    1.397   .     A
C227   O34     1.395   .     S
C228   H74     1.084   .     S
C229   C230    1.397   .     A
C229   H75     1.084   .     S
C230   C231    1.412   .     A
C230   O35     1.395   .     S
C231   C232    1.397   .     A
C231   O36     1.395   .     S
C232   H76     1.084   .     S
C233   C234    1.397   .     A
C233   H77     1.084   .     S
C234   C235    1.412   .     A
C234   O37     1.395   .     S
C235   C236    1.397   .     A
C235   O38     1.395   .     S
C236   H78     1.084   .     S
C237   C238    1.397   .     A
C237   H79     1.084   .     S
C238   C239    1.412   .     A
C238   O39     1.395   .     S
C239   C240    1.397   .     A
C239   O40     1.395   .     S
C240   H80     1.084   .     S
O33    Zn6     1.800   .     S
O34    Zn6     1.800   .     S
O35    Zn1     1.800   .     S
O36    Zn1     1.800   .     S
O37    Zn8     1.800   .     S
O38    Zn8     1.800   .     S
O39    Zn3     1.800   .     S
O40    Zn3     1.800   .     S
C241   C242    1.412   .     A
C241   C246    1.394   .     A
C241   H81     1.084   .     S
C242   C243    1.432   .     A
C242   C277    1.403   .     A
C243   C244    1.411   .     A
C243   C280    1.403   .     A
C244   C245    1.394   .     A
C244   H82     1.084   .     S
C245   C246    1.358   .     A
C245   C248    1.377   .     A
C246   C247    1.377   .     A
C247   N41     1.359   .     A
C247   N48     1.338   .     A
N41    C248    1.359   .     A
N41    Ni6     1.895   .     S
C248   N42     1.338   .     A
N42    C249    1.338   .     A
C249   N43     1.359   .     A
C249   C252    1.377   .     A
N43    C250    1.359   .     A
N43    Ni6     1.895   .     S
C250   C251    1.377   .     A
C250   N45     1.338   .     A
C251   C252    1.358   .     A
C251   C260    1.394   .     A
C252   C257    1.394   .     A
N44    C253    1.359   .     A
N44    C256    1.359   .     A
N44    Ni6     1.895   .     S
C253   N45     1.338   .     A
C253   C254    1.377   .     A
C254   C255    1.358   .     A
C254   C264    1.394   .     A
C255   C256    1.377   .     A
C255   C261    1.394   .     A
C256   N47     1.338   .     A
C257   C258    1.412   .     A
C257   H83     1.084   .     S
C258   C259    1.432   .     A
C258   C281    1.403   .     A
C259   C260    1.412   .     A
C259   C284    1.403   .     A
C260   H84     1.084   .     S
C261   C262    1.412   .     A
C261   H85     1.084   .     S
C262   C263    1.432   .     A
C262   C285    1.403   .     A
C263   C264    1.411   .     A
C263   C288    1.403   .     A
C264   H86     1.084   .     S
N46    C265    1.359   .     A
N46    C268    1.359   .     A
N46    Ni6     1.895   .     S
C265   N47     1.338   .     A
C265   C266    1.377   .     A
C266   C267    1.358   .     A
C266   C272    1.394   .     A
C267   C268    1.377   .     A
C267   C269    1.394   .     A
C268   N48     1.338   .     A
C269   C270    1.412   .     A
C269   H87     1.084   .     S
C270   C271    1.432   .     A
C270   C273    1.403   .     A
C271   C272    1.411   .     A
C271   C276    1.403   .     A
C272   H88     1.084   .     S
C273   C274    1.397   .     A
C273   H89     1.084   .     S
C274   C275    1.412   .     A
C274   O41     1.395   .     S
C275   C276    1.397   .     A
C275   O42     1.395   .     S
C276   H90     1.084   .     S
C277   C278    1.397   .     A
C277   H91     1.084   .     S
C278   C279    1.412   .     A
C278   O43     1.395   .     S
C279   C280    1.397   .     A
C279   O44     1.395   .     S
C280   H92     1.084   .     S
C281   C282    1.397   .     A
C281   H93     1.084   .     S
C282   C283    1.412   .     A
C282   O45     1.395   .     S
C283   C284    1.397   .     A
C283   O46     1.395   .     S
C284   H94     1.084   .     S
C285   C286    1.397   .     A
C285   H95     1.084   .     S
C286   C287    1.412   .     A
C286   O47     1.395   .     S
C287   C288    1.397   .     A
C287   O48     1.395   .     S
C288   H96     1.084   .     S
O41    Zn4     1.800   .     S
O42    Zn4     1.800   .     S
O43    Zn5     1.800   .     S
O44    Zn5     1.800   .     S
O45    Zn2     1.800   .     S
O46    Zn2     1.800   .     S
O47    Zn7     1.800   .     S
O48    Zn7     1.800   .     S
Zn1    O7      1.800   1_455 S
Zn2    O1      1.800   1_545 S
Zn3    O3      1.800   1_455 S
Zn4    O5      1.800   1_545 S
Zn5    O10     1.800   1_545 S
Zn6    O20     1.800   1_455 S
Zn7    O14     1.800   1_545 S
Zn8    O24     1.800   1_455 S
Zn9    O18     1.800   1_554 S
Zn10   O12     1.800   1_554 S
Zn11   O22     1.800   1_554 S
Zn12   O16     1.800   1_554 S
