data_nta-TP_O-Zntet
_audit_creation_date              2021-11-06
_audit_creation_method            'Materials Studio'
_symmetry_space_group_name_H-M    'P1'
_symmetry_Int_Tables_number       1
_symmetry_cell_setting            triclinic
loop_
_symmetry_equiv_pos_as_xyz
  x,y,z
_cell_length_a                    54.2596
_cell_length_b                    54.2599
_cell_length_c                    72.0078
_cell_angle_alpha                 90.0087
_cell_angle_beta                  89.9912
_cell_angle_gamma                 120.0178
loop_
_atom_site_label
_atom_site_type_symbol
_atom_site_fract_x
_atom_site_fract_y
_atom_site_fract_z
_atom_site_U_iso_or_equiv
_atom_site_adp_type
_atom_site_occupancy
C1     C     0.36295   0.99339   0.00177   0.00000  Uiso   1.00
C2     C     0.37925   0.98043   0.99653   0.00000  Uiso   1.00
C3     C     0.40836   0.99310   0.00198   0.00000  Uiso   1.00
C4     C     0.42085   0.01807   0.01340   0.00000  Uiso   1.00
C5     C     0.40444   0.03078   0.01882   0.00000  Uiso   1.00
C6     C     0.37524   0.01799   0.01341   0.00000  Uiso   1.00
C7     C     0.44961   0.02934   0.01924   0.00000  Uiso   1.00
C8     C     0.46544   0.01709   0.01339   0.00000  Uiso   1.00
C9     C     0.45390   0.99403   0.00198   0.00000  Uiso   1.00
C10    C     0.42583   0.98182   0.99613   0.00000  Uiso   1.00
C11    C     0.33465   0.98140   0.99492   0.00000  Uiso   1.00
C12    C     0.32225   0.95672   0.98430   0.00000  Uiso   1.00
C13    C     0.33769   0.94317   0.98002   0.00000  Uiso   1.00
C14    C     0.36567   0.95480   0.98601   0.00000  Uiso   1.00
C15    C     0.35898   0.03010   0.02013   0.00000  Uiso   1.00
C16    C     0.37123   0.05470   0.03083   0.00000  Uiso   1.00
C17    C     0.40012   0.06801   0.03535   0.00000  Uiso   1.00
C18    C     0.41644   0.05629   0.02947   0.00000  Uiso   1.00
H1     H     0.46049   0.04725   0.02842   0.00000  Uiso   1.00
O1     O     0.49345   0.02744   0.01857   0.00000  Uiso   1.00
O2     O     0.47156   0.98370   0.99679   0.00000  Uiso   1.00
H2     H     0.41880   0.96397   0.98689   0.00000  Uiso   1.00
H3     H     0.32151   0.99077  -0.00280   0.00000  Uiso   1.00
O3     O     0.29431   0.94517   0.97795   0.00000  Uiso   1.00
O4     O     0.32489   0.91813   0.96958   0.00000  Uiso   1.00
H4     H     0.37586   0.94285   0.98230   0.00000  Uiso   1.00
H5     H     0.33652   0.02088   0.01769   0.00000  Uiso   1.00
O5     O     0.35488   0.06636   0.03705   0.00000  Uiso   1.00
O6     O     0.41232   0.09293   0.04593   0.00000  Uiso   1.00
H6     H     0.43849   0.06804   0.03340   0.00000  Uiso   1.00
C19    C     0.98071   0.37899   0.01872   0.00000  Uiso   1.00
C20    C     0.99362   0.36266   0.01342   0.00000  Uiso   1.00
C21    C     0.01821   0.37496   0.00178   0.00000  Uiso   1.00
C22    C     0.03107   0.40418   0.99643   0.00000  Uiso   1.00
C23    C     0.01838   0.42060   0.00186   0.00000  Uiso   1.00
C24    C     0.99341   0.40811   0.01329   0.00000  Uiso   1.00
C25    C     0.05663   0.41620   0.98583   0.00000  Uiso   1.00
C26    C     0.06831   0.39987   0.97991   0.00000  Uiso   1.00
C27    C     0.05491   0.37095   0.98434   0.00000  Uiso   1.00
C28    C     0.03028   0.35868   0.99501   0.00000  Uiso   1.00
C29    C     0.95513   0.36543   0.02929   0.00000  Uiso   1.00
C30    C     0.94347   0.33743   0.03524   0.00000  Uiso   1.00
C31    C     0.95694   0.32195   0.03088   0.00000  Uiso   1.00
C32    C     0.98159   0.33433   0.02023   0.00000  Uiso   1.00
C33    C     0.98213   0.42559   0.01914   0.00000  Uiso   1.00
C34    C     0.99436   0.45366   0.01329   0.00000  Uiso   1.00
C35    C     0.01742   0.46520   0.00188   0.00000  Uiso   1.00
C36    C     0.02965   0.44936   0.99603   0.00000  Uiso   1.00
H7     H     0.06845   0.43829   0.98198   0.00000  Uiso   1.00
O7     O     0.09328   0.41210   0.96939   0.00000  Uiso   1.00
O8     O     0.06654   0.35459   0.97808   0.00000  Uiso   1.00
H8     H     0.02100   0.33620  -0.00261   0.00000  Uiso   1.00
H9     H     0.94324   0.37565   0.03307   0.00000  Uiso   1.00
O9     O     0.91847   0.32466   0.04573   0.00000  Uiso   1.00
O10    O     0.94536   0.29399   0.03718   0.00000  Uiso   1.00
H10    H     0.99091   0.32117   0.01790   0.00000  Uiso   1.00
H11    H     0.96426   0.41855   0.02835   0.00000  Uiso   1.00
O11    O     0.98402   0.47132   0.01848   0.00000  Uiso   1.00
O12    O     0.02776   0.49320   0.99670   0.00000  Uiso   1.00
H12    H     0.04754   0.46022   0.98683   0.00000  Uiso   1.00
C37    C     0.60737   0.63230   0.99649   0.00000  Uiso   1.00
C38    C     0.63661   0.64864   0.00179   0.00000  Uiso   1.00
C39    C     0.64891   0.63635   0.01342   0.00000  Uiso   1.00
C40    C     0.63257   0.60710   0.01871   0.00000  Uiso   1.00
C41    C     0.60344   0.59067   0.01330   0.00000  Uiso   1.00
C42    C     0.59094   0.60317   0.00191   0.00000  Uiso   1.00
C43    C     0.64614   0.59507   0.02925   0.00000  Uiso   1.00
C44    C     0.67415   0.61142   0.03520   0.00000  Uiso   1.00
C45    C     0.68961   0.64040   0.03088   0.00000  Uiso   1.00
C46    C     0.67722   0.65266   0.02024   0.00000  Uiso   1.00
C47    C     0.59533   0.64586   0.98595   0.00000  Uiso   1.00
C48    C     0.61168   0.67387   0.98000   0.00000  Uiso   1.00
C49    C     0.64066   0.68934   0.98433   0.00000  Uiso   1.00
C50    C     0.65292   0.67695   0.99496   0.00000  Uiso   1.00
C51    C     0.56217   0.58569   0.99608   0.00000  Uiso   1.00
C52    C     0.54634   0.55761   0.00192   0.00000  Uiso   1.00
C53    C     0.55788   0.54607   0.01330   0.00000  Uiso   1.00
C54    C     0.58596   0.56191   0.01913   0.00000  Uiso   1.00
H13    H     0.63592   0.57294   0.03301   0.00000  Uiso   1.00
O13    O     0.68694   0.59919   0.04566   0.00000  Uiso   1.00
O14    O     0.71756   0.65680   0.03721   0.00000  Uiso   1.00
H14    H     0.69035   0.67518   0.01795   0.00000  Uiso   1.00
H15    H     0.57321   0.63563   0.98218   0.00000  Uiso   1.00
O15    O     0.59945   0.68665   0.96953   0.00000  Uiso   1.00
O16    O     0.65705   0.71729   0.97800   0.00000  Uiso   1.00
H16    H     0.67544   0.69009  -0.00274   0.00000  Uiso   1.00
H17    H     0.55132   0.59274   0.98690   0.00000  Uiso   1.00
O17    O     0.51833   0.53995   0.99675   0.00000  Uiso   1.00
O18    O     0.54021   0.51806   0.01848   0.00000  Uiso   1.00
H18    H     0.59301   0.55106   0.02832   0.00000  Uiso   1.00
C55    C     0.63252   0.03078   0.01878   0.00000  Uiso   1.00
C56    C     0.64887   0.01790   0.01345   0.00000  Uiso   1.00
C57    C     0.63657   0.99331   0.00181   0.00000  Uiso   1.00
C58    C     0.60733   0.98042   0.99649   0.00000  Uiso   1.00
C59    C     0.59090   0.99310   0.00193   0.00000  Uiso   1.00
C60    C     0.60339   0.01807   0.01335   0.00000  Uiso   1.00
C61    C     0.59531   0.95485   0.98590   0.00000  Uiso   1.00
C62    C     0.61164   0.94318   0.97996   0.00000  Uiso   1.00
C63    C     0.64059   0.95662   0.98436   0.00000  Uiso   1.00
C64    C     0.65285   0.98126   0.99502   0.00000  Uiso   1.00
C65    C     0.64607   0.05635   0.02936   0.00000  Uiso   1.00
C66    C     0.67408   0.06803   0.03529   0.00000  Uiso   1.00
C67    C     0.68958   0.05459   0.03090   0.00000  Uiso   1.00
C68    C     0.67721   0.02995   0.02024   0.00000  Uiso   1.00
C69    C     0.58591   0.02934   0.01920   0.00000  Uiso   1.00
C70    C     0.55784   0.01710   0.01336   0.00000  Uiso   1.00
C71    C     0.54630   0.99404   0.00195   0.00000  Uiso   1.00
C72    C     0.56214   0.98182   0.99609   0.00000  Uiso   1.00
H19    H     0.57320   0.94299   0.98209   0.00000  Uiso   1.00
O19    O     0.59942   0.91820   0.96946   0.00000  Uiso   1.00
O20    O     0.65696   0.94503   0.97807   0.00000  Uiso   1.00
H20    H     0.67534   0.99057  -0.00263   0.00000  Uiso   1.00
H21    H     0.63583   0.06821   0.03317   0.00000  Uiso   1.00
O21    O     0.68684   0.09301   0.04580   0.00000  Uiso   1.00
O22    O     0.71756   0.06620   0.03718   0.00000  Uiso   1.00
H22    H     0.69039   0.02065   0.01788   0.00000  Uiso   1.00
H23    H     0.59295   0.04722   0.02841   0.00000  Uiso   1.00
O23    O     0.54017   0.02744   0.01855   0.00000  Uiso   1.00
O24    O     0.51829   0.98370   0.99678   0.00000  Uiso   1.00
H24    H     0.55129   0.96393   0.98689   0.00000  Uiso   1.00
C73    C     0.01815   0.64859   0.00175   0.00000  Uiso   1.00
C74    C     0.03106   0.63225   0.99646   0.00000  Uiso   1.00
C75    C     0.01837   0.60314   0.00190   0.00000  Uiso   1.00
C76    C     0.99342   0.59066   0.01333   0.00000  Uiso   1.00
C77    C     0.98072   0.60708   0.01876   0.00000  Uiso   1.00
C78    C     0.99355   0.63629   0.01339   0.00000  Uiso   1.00
C79    C     0.98214   0.56190   0.01917   0.00000  Uiso   1.00
C80    C     0.99437   0.54606   0.01332   0.00000  Uiso   1.00
C81    C     0.01742   0.55759   0.00190   0.00000  Uiso   1.00
C82    C     0.02964   0.58566   0.99604   0.00000  Uiso   1.00
C83    C     0.03018   0.67691   0.99493   0.00000  Uiso   1.00
C84    C     0.05484   0.68929   0.98429   0.00000  Uiso   1.00
C85    C     0.06832   0.67381   0.97994   0.00000  Uiso   1.00
C86    C     0.05666   0.64582   0.98590   0.00000  Uiso   1.00
C87    C     0.98146   0.65256   0.02013   0.00000  Uiso   1.00
C88    C     0.95685   0.64031   0.03082   0.00000  Uiso   1.00
C89    C     0.94349   0.61140   0.03530   0.00000  Uiso   1.00
C90    C     0.95519   0.59507   0.02940   0.00000  Uiso   1.00
H25    H     0.96424   0.55103   0.02836   0.00000  Uiso   1.00
O25    O     0.98403   0.51805   0.01850   0.00000  Uiso   1.00
O26    O     0.02775   0.53993   0.99671   0.00000  Uiso   1.00
H26    H     0.04750   0.59269   0.98682   0.00000  Uiso   1.00
H27    H     0.02086   0.69008  -0.00274   0.00000  Uiso   1.00
O27    O     0.06643   0.71725   0.97798   0.00000  Uiso   1.00
O28    O     0.09333   0.68659   0.96946   0.00000  Uiso   1.00
H28    H     0.06856   0.63560   0.98214   0.00000  Uiso   1.00
H29    H     0.99071   0.67503   0.01772   0.00000  Uiso   1.00
O29    O     0.94522   0.65666   0.03707   0.00000  Uiso   1.00
O30    O     0.91855   0.59919   0.04585   0.00000  Uiso   1.00
H30    H     0.94340   0.57300   0.03328   0.00000  Uiso   1.00
C91    C     0.37519   0.36263   0.01342   0.00000  Uiso   1.00
C92    C     0.40444   0.37896   0.01871   0.00000  Uiso   1.00
C93    C     0.42086   0.40809   0.01330   0.00000  Uiso   1.00
C94    C     0.40836   0.42060   0.00192   0.00000  Uiso   1.00
C95    C     0.37923   0.40418   0.99650   0.00000  Uiso   1.00
C96    C     0.36290   0.37492   0.00179   0.00000  Uiso   1.00
C97    C     0.42584   0.44936   0.99609   0.00000  Uiso   1.00
C98    C     0.45392   0.46520   0.00193   0.00000  Uiso   1.00
C99    C     0.46547   0.45365   0.01330   0.00000  Uiso   1.00
C100   C     0.44963   0.42557   0.01913   0.00000  Uiso   1.00
C101   C     0.35887   0.33432   0.02025   0.00000  Uiso   1.00
C102   C     0.37114   0.32193   0.03088   0.00000  Uiso   1.00
C103   C     0.40012   0.33739   0.03519   0.00000  Uiso   1.00
C104   C     0.41647   0.36539   0.02924   0.00000  Uiso   1.00
C105   C     0.33459   0.35861   0.99496   0.00000  Uiso   1.00
C106   C     0.32220   0.37088   0.98433   0.00000  Uiso   1.00
C107   C     0.33766   0.39986   0.98002   0.00000  Uiso   1.00
C108   C     0.36566   0.41621   0.98597   0.00000  Uiso   1.00
H31    H     0.41879   0.46021   0.98691   0.00000  Uiso   1.00
O31    O     0.47158   0.49321   0.99676   0.00000  Uiso   1.00
O32    O     0.49348   0.47132   0.01847   0.00000  Uiso   1.00
H32    H     0.46047   0.41852   0.02832   0.00000  Uiso   1.00
H33    H     0.33636   0.32119   0.01796   0.00000  Uiso   1.00
O33    O     0.35474   0.29398   0.03721   0.00000  Uiso   1.00
O34    O     0.41235   0.32459   0.04565   0.00000  Uiso   1.00
H34    H     0.43860   0.37561   0.03300   0.00000  Uiso   1.00
H35    H     0.32146   0.33609  -0.00275   0.00000  Uiso   1.00
O35    O     0.29425   0.35448   0.97800   0.00000  Uiso   1.00
O36    O     0.32487   0.41209   0.96957   0.00000  Uiso   1.00
H36    H     0.37588   0.43834   0.98222   0.00000  Uiso   1.00
C109   C     0.02968   0.32679   0.33509   0.00000  Uiso   1.00
C110   C     0.04601   0.31387   0.32980   0.00000  Uiso   1.00
C111   C     0.07513   0.32656   0.33524   0.00000  Uiso   1.00
C112   C     0.08761   0.35152   0.34667   0.00000  Uiso   1.00
C113   C     0.07119   0.36421   0.35211   0.00000  Uiso   1.00
C114   C     0.04198   0.35138   0.34673   0.00000  Uiso   1.00
C115   C     0.11637   0.36279   0.35252   0.00000  Uiso   1.00
C116   C     0.13221   0.35056   0.34666   0.00000  Uiso   1.00
C117   C     0.12067   0.32751   0.33524   0.00000  Uiso   1.00
C118   C     0.09261   0.31529   0.32939   0.00000  Uiso   1.00
C119   C     0.00136   0.31476   0.32828   0.00000  Uiso   1.00
C120   C     0.98897   0.29010   0.31764   0.00000  Uiso   1.00
C121   C     0.00445   0.27662   0.31329   0.00000  Uiso   1.00
C122   C     0.03244   0.28827   0.31925   0.00000  Uiso   1.00
C123   C     0.02571   0.36347   0.35348   0.00000  Uiso   1.00
C124   C     0.03797   0.38809   0.36416   0.00000  Uiso   1.00
C125   C     0.06688   0.40145   0.36864   0.00000  Uiso   1.00
C126   C     0.08320   0.38974   0.36274   0.00000  Uiso   1.00
H37    H     0.12723   0.38068   0.36171   0.00000  Uiso   1.00
O37    O     0.16021   0.36089   0.35184   0.00000  Uiso   1.00
O38    O     0.13834   0.31718   0.33004   0.00000  Uiso   1.00
H38    H     0.08557   0.29743   0.32016   0.00000  Uiso   1.00
H39    H     0.98819   0.32408   0.33061   0.00000  Uiso   1.00
O39    O     0.96101   0.27851   0.31133   0.00000  Uiso   1.00
O40    O     0.99167   0.25160   0.30281   0.00000  Uiso   1.00
H40    H     0.04266   0.27637   0.31549   0.00000  Uiso   1.00
H41    H     0.00324   0.35423   0.35107   0.00000  Uiso   1.00
O41    O     0.02162   0.39973   0.37041   0.00000  Uiso   1.00
O42    O     0.07909   0.42639   0.37919   0.00000  Uiso   1.00
H42    H     0.10527   0.40154   0.36662   0.00000  Uiso   1.00
C127   C     0.64747   0.71241   0.35207   0.00000  Uiso   1.00
C128   C     0.66038   0.69607   0.34677   0.00000  Uiso   1.00
C129   C     0.68497   0.70837   0.33513   0.00000  Uiso   1.00
C130   C     0.69782   0.73759   0.32977   0.00000  Uiso   1.00
C131   C     0.68512   0.75401   0.33520   0.00000  Uiso   1.00
C132   C     0.66016   0.74152   0.34663   0.00000  Uiso   1.00
C133   C     0.72336   0.74961   0.31915   0.00000  Uiso   1.00
C134   C     0.73505   0.73328   0.31323   0.00000  Uiso   1.00
C135   C     0.72167   0.70437   0.31769   0.00000  Uiso   1.00
C136   C     0.69706   0.69211   0.32837   0.00000  Uiso   1.00
C137   C     0.62188   0.69884   0.36263   0.00000  Uiso   1.00
C138   C     0.61022   0.67084   0.36858   0.00000  Uiso   1.00
C139   C     0.62369   0.65536   0.36422   0.00000  Uiso   1.00
C140   C     0.64834   0.66775   0.35357   0.00000  Uiso   1.00
C141   C     0.64889   0.75900   0.35249   0.00000  Uiso   1.00
C142   C     0.66111   0.78707   0.34664   0.00000  Uiso   1.00
C143   C     0.68416   0.79861   0.33522   0.00000  Uiso   1.00
C144   C     0.69639   0.78277   0.32936   0.00000  Uiso   1.00
H43    H     0.73516   0.77169   0.31528   0.00000  Uiso   1.00
O43    O     0.76000   0.74550   0.30269   0.00000  Uiso   1.00
O44    O     0.73331   0.68801   0.31143   0.00000  Uiso   1.00
H44    H     0.68780   0.66963   0.33076   0.00000  Uiso   1.00
H45    H     0.60999   0.70907   0.36641   0.00000  Uiso   1.00
O45    O     0.58522   0.65807   0.37907   0.00000  Uiso   1.00
O46    O     0.61210   0.62740   0.37052   0.00000  Uiso   1.00
H46    H     0.65766   0.65458   0.35124   0.00000  Uiso   1.00
H47    H     0.63103   0.75197   0.36172   0.00000  Uiso   1.00
O47    O     0.65078   0.80473   0.35184   0.00000  Uiso   1.00
O48    O     0.69450   0.82662   0.33005   0.00000  Uiso   1.00
H48    H     0.71428   0.79363   0.32017   0.00000  Uiso   1.00
C145   C     0.27410   0.96570   0.32985   0.00000  Uiso   1.00
C146   C     0.30335   0.98204   0.33515   0.00000  Uiso   1.00
C147   C     0.31564   0.96974   0.34678   0.00000  Uiso   1.00
C148   C     0.29930   0.94049   0.35207   0.00000  Uiso   1.00
C149   C     0.27018   0.92407   0.34665   0.00000  Uiso   1.00
C150   C     0.25768   0.93657   0.33527   0.00000  Uiso   1.00
C151   C     0.31287   0.92845   0.36261   0.00000  Uiso   1.00
C152   C     0.34087   0.94480   0.36856   0.00000  Uiso   1.00
C153   C     0.35634   0.97378   0.36424   0.00000  Uiso   1.00
C154   C     0.34395   0.98605   0.35361   0.00000  Uiso   1.00
C155   C     0.26207   0.97928   0.31932   0.00000  Uiso   1.00
C156   C     0.27843   0.00728   0.31337   0.00000  Uiso   1.00
C157   C     0.30740   0.02274   0.31769   0.00000  Uiso   1.00
C158   C     0.31967   0.01035   0.32832   0.00000  Uiso   1.00
C159   C     0.22892   0.91909   0.32943   0.00000  Uiso   1.00
C160   C     0.21308   0.89101   0.33526   0.00000  Uiso   1.00
C161   C     0.22461   0.87946   0.34664   0.00000  Uiso   1.00
C162   C     0.25269   0.89530   0.35248   0.00000  Uiso   1.00
H49    H     0.30264   0.90633   0.36637   0.00000  Uiso   1.00
O49    O     0.35366   0.93257   0.37902   0.00000  Uiso   1.00
O50    O     0.38429   0.99017   0.37057   0.00000  Uiso   1.00
H50    H     0.35709   0.00857   0.35132   0.00000  Uiso   1.00
H51    H     0.23995   0.96906   0.31556   0.00000  Uiso   1.00
O51    O     0.26620   0.02007   0.30291   0.00000  Uiso   1.00
O52    O     0.32381   0.05069   0.31136   0.00000  Uiso   1.00
H52    H     0.34219   0.02347   0.33061   0.00000  Uiso   1.00
H53    H     0.21808   0.92614   0.32023   0.00000  Uiso   1.00
O53    O     0.18507   0.87335   0.33008   0.00000  Uiso   1.00
O54    O     0.20695   0.85145   0.35181   0.00000  Uiso   1.00
H54    H     0.25974   0.88445   0.36167   0.00000  Uiso   1.00
C163   C     0.29927   0.36421   0.35206   0.00000  Uiso   1.00
C164   C     0.31560   0.35129   0.34678   0.00000  Uiso   1.00
C165   C     0.30330   0.32669   0.33514   0.00000  Uiso   1.00
C166   C     0.27409   0.31386   0.32977   0.00000  Uiso   1.00
C167   C     0.25767   0.32656   0.33520   0.00000  Uiso   1.00
C168   C     0.27016   0.35152   0.34662   0.00000  Uiso   1.00
C169   C     0.26208   0.28833   0.31914   0.00000  Uiso   1.00
C170   C     0.27840   0.27663   0.31324   0.00000  Uiso   1.00
C171   C     0.30732   0.28999   0.31771   0.00000  Uiso   1.00
C172   C     0.31957   0.31460   0.32840   0.00000  Uiso   1.00
C173   C     0.31284   0.38982   0.36261   0.00000  Uiso   1.00
C174   C     0.34083   0.40147   0.36857   0.00000  Uiso   1.00
C175   C     0.35630   0.38798   0.36424   0.00000  Uiso   1.00
C176   C     0.34392   0.36332   0.35360   0.00000  Uiso   1.00
C177   C     0.25268   0.36279   0.35248   0.00000  Uiso   1.00
C178   C     0.22461   0.35057   0.34662   0.00000  Uiso   1.00
C179   C     0.21307   0.32752   0.33521   0.00000  Uiso   1.00
C180   C     0.22891   0.31529   0.32936   0.00000  Uiso   1.00
H55    H     0.24001   0.27653   0.31526   0.00000  Uiso   1.00
O55    O     0.26620   0.25168   0.30269   0.00000  Uiso   1.00
O56    O     0.32367   0.27835   0.31147   0.00000  Uiso   1.00
H56    H     0.34204   0.32385   0.33080   0.00000  Uiso   1.00
H57    H     0.30263   0.40172   0.36637   0.00000  Uiso   1.00
O57    O     0.35361   0.42648   0.37905   0.00000  Uiso   1.00
O58    O     0.38426   0.39956   0.37055   0.00000  Uiso   1.00
H58    H     0.35708   0.35399   0.35128   0.00000  Uiso   1.00
H59    H     0.25971   0.38065   0.36171   0.00000  Uiso   1.00
O59    O     0.20695   0.36090   0.35182   0.00000  Uiso   1.00
O60    O     0.18506   0.31717   0.33004   0.00000  Uiso   1.00
H60    H     0.21805   0.29739   0.32016   0.00000  Uiso   1.00
C181   C     0.68489   0.98200   0.33514   0.00000  Uiso   1.00
C182   C     0.69781   0.96567   0.32985   0.00000  Uiso   1.00
C183   C     0.68513   0.93656   0.33529   0.00000  Uiso   1.00
C184   C     0.66016   0.92407   0.34671   0.00000  Uiso   1.00
C185   C     0.64746   0.94048   0.35215   0.00000  Uiso   1.00
C186   C     0.66030   0.96970   0.34677   0.00000  Uiso   1.00
C187   C     0.64889   0.89530   0.35255   0.00000  Uiso   1.00
C188   C     0.66112   0.87947   0.34669   0.00000  Uiso   1.00
C189   C     0.68418   0.89101   0.33527   0.00000  Uiso   1.00
C190   C     0.69639   0.91908   0.32943   0.00000  Uiso   1.00
C191   C     0.69692   0.01032   0.32832   0.00000  Uiso   1.00
C192   C     0.72158   0.02271   0.31768   0.00000  Uiso   1.00
C193   C     0.73506   0.00724   0.31334   0.00000  Uiso   1.00
C194   C     0.72341   0.97924   0.31930   0.00000  Uiso   1.00
C195   C     0.64820   0.98596   0.35352   0.00000  Uiso   1.00
C196   C     0.62359   0.97370   0.36421   0.00000  Uiso   1.00
C197   C     0.61023   0.94479   0.36868   0.00000  Uiso   1.00
C198   C     0.62194   0.92847   0.36278   0.00000  Uiso   1.00
H61    H     0.63100   0.88444   0.36174   0.00000  Uiso   1.00
O61    O     0.65078   0.85146   0.35186   0.00000  Uiso   1.00
O62    O     0.69450   0.87335   0.33007   0.00000  Uiso   1.00
H62    H     0.71425   0.92612   0.32020   0.00000  Uiso   1.00
H63    H     0.68759   0.02348   0.33064   0.00000  Uiso   1.00
O63    O     0.73315   0.05066   0.31137   0.00000  Uiso   1.00
O64    O     0.76008   0.02002   0.30286   0.00000  Uiso   1.00
H64    H     0.73532   0.96903   0.31554   0.00000  Uiso   1.00
H65    H     0.65745   0.00843   0.35112   0.00000  Uiso   1.00
O65    O     0.61195   0.99005   0.37046   0.00000  Uiso   1.00
O66    O     0.58529   0.93258   0.37923   0.00000  Uiso   1.00
H66    H     0.61014   0.90640   0.36666   0.00000  Uiso   1.00
C199   C     0.04191   0.69603   0.34674   0.00000  Uiso   1.00
C200   C     0.07117   0.71236   0.35202   0.00000  Uiso   1.00
C201   C     0.08760   0.74149   0.34661   0.00000  Uiso   1.00
C202   C     0.07510   0.75400   0.33523   0.00000  Uiso   1.00
C203   C     0.04597   0.73758   0.32981   0.00000  Uiso   1.00
C204   C     0.02963   0.70833   0.33511   0.00000  Uiso   1.00
C205   C     0.09258   0.78277   0.32940   0.00000  Uiso   1.00
C206   C     0.12066   0.79860   0.33524   0.00000  Uiso   1.00
C207   C     0.13220   0.78705   0.34662   0.00000  Uiso   1.00
C208   C     0.11636   0.75897   0.35245   0.00000  Uiso   1.00
C209   C     0.02560   0.66773   0.35357   0.00000  Uiso   1.00
C210   C     0.03786   0.65533   0.36420   0.00000  Uiso   1.00
C211   C     0.06684   0.67078   0.36850   0.00000  Uiso   1.00
C212   C     0.08320   0.69878   0.36255   0.00000  Uiso   1.00
C213   C     0.00131   0.69202   0.32828   0.00000  Uiso   1.00
C214   C     0.98893   0.70429   0.31765   0.00000  Uiso   1.00
C215   C     0.00440   0.73326   0.31332   0.00000  Uiso   1.00
C216   C     0.03240   0.74961   0.31927   0.00000  Uiso   1.00
H67    H     0.08553   0.79362   0.32022   0.00000  Uiso   1.00
O67    O     0.13832   0.82661   0.33007   0.00000  Uiso   1.00
O68    O     0.16021   0.80471   0.35179   0.00000  Uiso   1.00
H68    H     0.12720   0.75191   0.36163   0.00000  Uiso   1.00
H69    H     0.00308   0.65461   0.35129   0.00000  Uiso   1.00
O69    O     0.02146   0.62739   0.37054   0.00000  Uiso   1.00
O70    O     0.07908   0.65799   0.37896   0.00000  Uiso   1.00
H70    H     0.10533   0.70900   0.36630   0.00000  Uiso   1.00
H71    H     0.98818   0.66951   0.33058   0.00000  Uiso   1.00
O71    O     0.96098   0.68789   0.31132   0.00000  Uiso   1.00
O72    O     0.99162   0.74550   0.30286   0.00000  Uiso   1.00
H72    H     0.04263   0.77173   0.31551   0.00000  Uiso   1.00
C217   C     0.69635   0.66014   0.66844   0.00000  Uiso   1.00
C218   C     0.71268   0.64723   0.66314   0.00000  Uiso   1.00
C219   C     0.74180   0.65992   0.66858   0.00000  Uiso   1.00
C220   C     0.75429   0.68488   0.68000   0.00000  Uiso   1.00
C221   C     0.73787   0.69758   0.68544   0.00000  Uiso   1.00
C222   C     0.70865   0.68473   0.68008   0.00000  Uiso   1.00
C223   C     0.78305   0.69615   0.68584   0.00000  Uiso   1.00
C224   C     0.79888   0.68392   0.67998   0.00000  Uiso   1.00
C225   C     0.78734   0.66087   0.66857   0.00000  Uiso   1.00
C226   C     0.75927   0.64865   0.66272   0.00000  Uiso   1.00
C227   C     0.66802   0.64811   0.66163   0.00000  Uiso   1.00
C228   C     0.65564   0.62345   0.65098   0.00000  Uiso   1.00
C229   C     0.67111   0.60998   0.64663   0.00000  Uiso   1.00
C230   C     0.69911   0.62163   0.65258   0.00000  Uiso   1.00
C231   C     0.69238   0.69681   0.68684   0.00000  Uiso   1.00
C232   C     0.70464   0.72143   0.69752   0.00000  Uiso   1.00
C233   C     0.73356   0.73481   0.70197   0.00000  Uiso   1.00
C234   C     0.74988   0.72311   0.69606   0.00000  Uiso   1.00
H73    H     0.79391   0.71405   0.69503   0.00000  Uiso   1.00
O73    O     0.82689   0.69426   0.68516   0.00000  Uiso   1.00
O74    O     0.80500   0.65053   0.66337   0.00000  Uiso   1.00
H74    H     0.75223   0.63079   0.65349   0.00000  Uiso   1.00
H75    H     0.65486   0.65743   0.66396   0.00000  Uiso   1.00
O75    O     0.62768   0.61187   0.64468   0.00000  Uiso   1.00
O76    O     0.65833   0.58497   0.63615   0.00000  Uiso   1.00
H76    H     0.70933   0.60974   0.64881   0.00000  Uiso   1.00
H77    H     0.66990   0.68755   0.68445   0.00000  Uiso   1.00
O77    O     0.68828   0.73306   0.70378   0.00000  Uiso   1.00
O78    O     0.74577   0.75976   0.71251   0.00000  Uiso   1.00
H78    H     0.77196   0.73492   0.69993   0.00000  Uiso   1.00
C235   C     0.31414   0.04576   0.68543   0.00000  Uiso   1.00
C236   C     0.32704   0.02942   0.68013   0.00000  Uiso   1.00
C237   C     0.35163   0.04172   0.66849   0.00000  Uiso   1.00
C238   C     0.36448   0.07094   0.66313   0.00000  Uiso   1.00
C239   C     0.35179   0.08736   0.66856   0.00000  Uiso   1.00
C240   C     0.32683   0.07488   0.67999   0.00000  Uiso   1.00
C241   C     0.39002   0.08295   0.65251   0.00000  Uiso   1.00
C242   C     0.40172   0.06663   0.64660   0.00000  Uiso   1.00
C243   C     0.38833   0.03771   0.65105   0.00000  Uiso   1.00
C244   C     0.36371   0.02545   0.66173   0.00000  Uiso   1.00
C245   C     0.28855   0.03220   0.69600   0.00000  Uiso   1.00
C246   C     0.27689   0.00420   0.70195   0.00000  Uiso   1.00
C247   C     0.29035   0.98872   0.69758   0.00000  Uiso   1.00
C248   C     0.31500   0.00110   0.68693   0.00000  Uiso   1.00
C249   C     0.31556   0.09236   0.68584   0.00000  Uiso   1.00
C250   C     0.32778   0.12043   0.67999   0.00000  Uiso   1.00
C251   C     0.35083   0.13196   0.66857   0.00000  Uiso   1.00
C252   C     0.36306   0.11612   0.66272   0.00000  Uiso   1.00
H79    H     0.40184   0.10503   0.64864   0.00000  Uiso   1.00
O79    O     0.42667   0.07884   0.63606   0.00000  Uiso   1.00
O80    O     0.39996   0.02135   0.64480   0.00000  Uiso   1.00
H80    H     0.35445   0.00297   0.66412   0.00000  Uiso   1.00
H81    H     0.27667   0.04243   0.69978   0.00000  Uiso   1.00
O81    O     0.25189   0.99143   0.71244   0.00000  Uiso   1.00
O82    O     0.27875   0.96075   0.70388   0.00000  Uiso   1.00
H82    H     0.32431   0.98792   0.68459   0.00000  Uiso   1.00
H83    H     0.29769   0.08532   0.69506   0.00000  Uiso   1.00
O83    O     0.31745   0.13809   0.68518   0.00000  Uiso   1.00
O84    O     0.36118   0.15997   0.66339   0.00000  Uiso   1.00
H84    H     0.38095   0.12698   0.65352   0.00000  Uiso   1.00
C253   C     0.94076   0.29905   0.66316   0.00000  Uiso   1.00
C254   C     0.97001   0.31539   0.66844   0.00000  Uiso   1.00
C255   C     0.98231   0.30310   0.68007   0.00000  Uiso   1.00
C256   C     0.96597   0.27386   0.68538   0.00000  Uiso   1.00
C257   C     0.93684   0.25743   0.67997   0.00000  Uiso   1.00
C258   C     0.92434   0.26993   0.66858   0.00000  Uiso   1.00
C259   C     0.97954   0.26183   0.69592   0.00000  Uiso   1.00
C260   C     0.00754   0.27818   0.70186   0.00000  Uiso   1.00
C261   C     0.02302   0.30715   0.69753   0.00000  Uiso   1.00
C262   C     0.01063   0.31941   0.68689   0.00000  Uiso   1.00
C263   C     0.92872   0.31263   0.65263   0.00000  Uiso   1.00
C264   C     0.94507   0.34062   0.64668   0.00000  Uiso   1.00
C265   C     0.97405   0.35608   0.65098   0.00000  Uiso   1.00
C266   C     0.98633   0.34369   0.66160   0.00000  Uiso   1.00
C267   C     0.89557   0.25244   0.66275   0.00000  Uiso   1.00
C268   C     0.87973   0.22437   0.66859   0.00000  Uiso   1.00
C269   C     0.89128   0.21283   0.67997   0.00000  Uiso   1.00
C270   C     0.91936   0.22867   0.68581   0.00000  Uiso   1.00
H85    H     0.96931   0.23971   0.69970   0.00000  Uiso   1.00
O85    O     0.02033   0.26596   0.71233   0.00000  Uiso   1.00
O86    O     0.05097   0.32355   0.70385   0.00000  Uiso   1.00
H86    H     0.02376   0.34192   0.68458   0.00000  Uiso   1.00
H87    H     0.90659   0.30241   0.64889   0.00000  Uiso   1.00
O87    O     0.93283   0.35342   0.63623   0.00000  Uiso   1.00
O88    O     0.99045   0.38402   0.64464   0.00000  Uiso   1.00
H88    H     0.00885   0.35682   0.66388   0.00000  Uiso   1.00
H89    H     0.88473   0.25949   0.65355   0.00000  Uiso   1.00
O89    O     0.85172   0.20670   0.66342   0.00000  Uiso   1.00
O90    O     0.87362   0.18482   0.68514   0.00000  Uiso   1.00
H90    H     0.92640   0.21782   0.69500   0.00000  Uiso   1.00
C271   C     0.96594   0.69756   0.68537   0.00000  Uiso   1.00
C272   C     0.98226   0.68463   0.68009   0.00000  Uiso   1.00
C273   C     0.96996   0.66004   0.66845   0.00000  Uiso   1.00
C274   C     0.94076   0.64722   0.66307   0.00000  Uiso   1.00
C275   C     0.92434   0.65992   0.66850   0.00000  Uiso   1.00
C276   C     0.93683   0.68488   0.67993   0.00000  Uiso   1.00
C277   C     0.92875   0.62169   0.65244   0.00000  Uiso   1.00
C278   C     0.94507   0.60999   0.64654   0.00000  Uiso   1.00
C279   C     0.97398   0.62334   0.65102   0.00000  Uiso   1.00
C280   C     0.98623   0.64794   0.66171   0.00000  Uiso   1.00
C281   C     0.97952   0.72317   0.69592   0.00000  Uiso   1.00
C282   C     0.00751   0.73482   0.70188   0.00000  Uiso   1.00
C283   C     0.02297   0.72131   0.69756   0.00000  Uiso   1.00
C284   C     0.01058   0.69665   0.68692   0.00000  Uiso   1.00
C285   C     0.91935   0.69615   0.68579   0.00000  Uiso   1.00
C286   C     0.89128   0.68393   0.67994   0.00000  Uiso   1.00
C287   C     0.87975   0.66088   0.66852   0.00000  Uiso   1.00
C288   C     0.89558   0.64865   0.66266   0.00000  Uiso   1.00
H91    H     0.90668   0.60991   0.64854   0.00000  Uiso   1.00
O91    O     0.93286   0.58505   0.63598   0.00000  Uiso   1.00
O92    O     0.99033   0.61169   0.64478   0.00000  Uiso   1.00
H92    H     0.00870   0.65719   0.66413   0.00000  Uiso   1.00
H93    H     0.96931   0.73509   0.69966   0.00000  Uiso   1.00
O93    O     0.02029   0.75984   0.71235   0.00000  Uiso   1.00
O94    O     0.05092   0.73288   0.70388   0.00000  Uiso   1.00
H94    H     0.02373   0.68731   0.68461   0.00000  Uiso   1.00
H95    H     0.92639   0.71400   0.69502   0.00000  Uiso   1.00
O95    O     0.87362   0.69426   0.68514   0.00000  Uiso   1.00
O96    O     0.85174   0.65053   0.66335   0.00000  Uiso   1.00
H96    H     0.88472   0.63076   0.65347   0.00000  Uiso   1.00
C289   C     0.35157   0.31535   0.66845   0.00000  Uiso   1.00
C290   C     0.36448   0.29902   0.66315   0.00000  Uiso   1.00
C291   C     0.35179   0.26991   0.66859   0.00000  Uiso   1.00
C292   C     0.32683   0.25742   0.68002   0.00000  Uiso   1.00
C293   C     0.31413   0.27384   0.68545   0.00000  Uiso   1.00
C294   C     0.32698   0.30306   0.68008   0.00000  Uiso   1.00
C295   C     0.31556   0.22866   0.68586   0.00000  Uiso   1.00
C296   C     0.32779   0.21283   0.68001   0.00000  Uiso   1.00
C297   C     0.35084   0.22436   0.66859   0.00000  Uiso   1.00
C298   C     0.36306   0.25243   0.66274   0.00000  Uiso   1.00
C299   C     0.36360   0.34368   0.66163   0.00000  Uiso   1.00
C300   C     0.38826   0.35606   0.65099   0.00000  Uiso   1.00
C301   C     0.40174   0.34058   0.64664   0.00000  Uiso   1.00
C302   C     0.39008   0.31259   0.65260   0.00000  Uiso   1.00
C303   C     0.31490   0.31933   0.68684   0.00000  Uiso   1.00
C304   C     0.29028   0.30707   0.69752   0.00000  Uiso   1.00
C305   C     0.27690   0.27815   0.70197   0.00000  Uiso   1.00
C306   C     0.28859   0.26183   0.69607   0.00000  Uiso   1.00
H97    H     0.29768   0.21781   0.69507   0.00000  Uiso   1.00
O97    O     0.31746   0.18482   0.68519   0.00000  Uiso   1.00
O98    O     0.36118   0.20670   0.66340   0.00000  Uiso   1.00
H98    H     0.38092   0.25946   0.65351   0.00000  Uiso   1.00
H99    H     0.35428   0.35684   0.66396   0.00000  Uiso   1.00
O99    O     0.39984   0.38402   0.64468   0.00000  Uiso   1.00
O100   O     0.42675   0.35336   0.63616   0.00000  Uiso   1.00
H100   H     0.40198   0.30237   0.64883   0.00000  Uiso   1.00
H101   H     0.32416   0.34180   0.68444   0.00000  Uiso   1.00
O101   O     0.27864   0.32343   0.70377   0.00000  Uiso   1.00
O102   O     0.25194   0.26594   0.71251   0.00000  Uiso   1.00
H102   H     0.27679   0.23975   0.69994   0.00000  Uiso   1.00
C307   C     0.70859   0.02938   0.68012   0.00000  Uiso   1.00
C308   C     0.73784   0.04572   0.68541   0.00000  Uiso   1.00
C309   C     0.75426   0.07485   0.67999   0.00000  Uiso   1.00
C310   C     0.74176   0.08735   0.66861   0.00000  Uiso   1.00
C311   C     0.71263   0.07092   0.66319   0.00000  Uiso   1.00
C312   C     0.69630   0.04167   0.66849   0.00000  Uiso   1.00
C313   C     0.75924   0.11611   0.66277   0.00000  Uiso   1.00
C314   C     0.78732   0.13195   0.66860   0.00000  Uiso   1.00
C315   C     0.79886   0.12041   0.67999   0.00000  Uiso   1.00
C316   C     0.78303   0.09234   0.68582   0.00000  Uiso   1.00
C317   C     0.69228   0.00107   0.68694   0.00000  Uiso   1.00
C318   C     0.70456   0.98868   0.69758   0.00000  Uiso   1.00
C319   C     0.73353   0.00416   0.70190   0.00000  Uiso   1.00
C320   C     0.74988   0.03216   0.69596   0.00000  Uiso   1.00
C321   C     0.66799   0.02535   0.66166   0.00000  Uiso   1.00
C322   C     0.65559   0.03762   0.65103   0.00000  Uiso   1.00
C323   C     0.67105   0.06659   0.64671   0.00000  Uiso   1.00
C324   C     0.69905   0.08295   0.65266   0.00000  Uiso   1.00
H103   H     0.75218   0.12695   0.65359   0.00000  Uiso   1.00
O103   O     0.80498   0.15996   0.66342   0.00000  Uiso   1.00
O104   O     0.82688   0.13808   0.68515   0.00000  Uiso   1.00
H104   H     0.79388   0.08529   0.69501   0.00000  Uiso   1.00
H105   H     0.66977   0.98793   0.68464   0.00000  Uiso   1.00
O105   O     0.68816   0.96073   0.70390   0.00000  Uiso   1.00
O106   O     0.74576   0.99137   0.71237   0.00000  Uiso   1.00
H106   H     0.77200   0.04239   0.69972   0.00000  Uiso   1.00
H107   H     0.65486   0.00284   0.66395   0.00000  Uiso   1.00
O107   O     0.62765   0.02122   0.64470   0.00000  Uiso   1.00
O108   O     0.65826   0.07882   0.63625   0.00000  Uiso   1.00
H108   H     0.70927   0.10507   0.64890   0.00000  Uiso   1.00
C325   C     0.37495   0.17700   0.07378   0.00000  Uiso   1.00
C326   C     0.36868   0.16069   0.09049   0.00000  Uiso   1.00
C327   C     0.36298   0.17100   0.10725   0.00000  Uiso   1.00
C328   C     0.36273   0.19727   0.10721   0.00000  Uiso   1.00
C329   C     0.36858   0.21334   0.09047   0.00000  Uiso   1.00
C330   C     0.37484   0.20328   0.07376   0.00000  Uiso   1.00
C331   C     0.35656   0.20663   0.12419   0.00000  Uiso   1.00
C332   C     0.35106   0.19075   0.14033   0.00000  Uiso   1.00
C333   C     0.35162   0.16599   0.14041   0.00000  Uiso   1.00
C334   C     0.35755   0.15584   0.12433   0.00000  Uiso   1.00
C335   C     0.38101   0.16623   0.05742   0.00000  Uiso   1.00
C336   C     0.38046   0.14037   0.05735   0.00000  Uiso   1.00
C337   C     0.37390   0.12425   0.07360   0.00000  Uiso   1.00
C338   C     0.36810   0.13418   0.08985   0.00000  Uiso   1.00
C339   C     0.38060   0.21993   0.05734   0.00000  Uiso   1.00
C340   C     0.38015   0.24530   0.05727   0.00000  Uiso   1.00
C341   C     0.37400   0.25509   0.07358   0.00000  Uiso   1.00
C342   C     0.36836   0.23947   0.08987   0.00000  Uiso   1.00
H109   H     0.35579   0.22594   0.12562   0.00000  Uiso   1.00
O109   O     0.34494   0.19898   0.15707   0.00000  Uiso   1.00
O110   O     0.34603   0.15191   0.15723   0.00000  Uiso   1.00
H110   H     0.35786   0.13631   0.12591   0.00000  Uiso   1.00
H111   H     0.38624   0.17709   0.04430   0.00000  Uiso   1.00
O111   O     0.38614   0.13016   0.04105   0.00000  Uiso   1.00
O112   O     0.37308   0.09811   0.07334   0.00000  Uiso   1.00
H112   H     0.36294   0.12022   0.10159   0.00000  Uiso   1.00
H113   H     0.38542   0.21408   0.04416   0.00000  Uiso   1.00
O113   O     0.38563   0.26107   0.04094   0.00000  Uiso   1.00
O114   O     0.37343   0.28054   0.07335   0.00000  Uiso   1.00
H114   H     0.36382   0.24861   0.10169   0.00000  Uiso   1.00
C343   C     0.83458   0.20330   0.07377   0.00000  Uiso   1.00
C344   C     0.85089   0.21338   0.09049   0.00000  Uiso   1.00
C345   C     0.84062   0.19735   0.10724   0.00000  Uiso   1.00
C346   C     0.81421   0.17093   0.10724   0.00000  Uiso   1.00
C347   C     0.79817   0.16065   0.09050   0.00000  Uiso   1.00
C348   C     0.80824   0.17695   0.07378   0.00000  Uiso   1.00
C349   C     0.80468   0.15558   0.12427   0.00000  Uiso   1.00
C350   C     0.82067   0.16585   0.14038   0.00000  Uiso   1.00
C351   C     0.84572   0.19090   0.14038   0.00000  Uiso   1.00
C352   C     0.85599   0.20688   0.12426   0.00000  Uiso   1.00
C353   C     0.84544   0.22000   0.05738   0.00000  Uiso   1.00
C354   C     0.87127   0.24537   0.05730   0.00000  Uiso   1.00
C355   C     0.88726   0.25511   0.07360   0.00000  Uiso   1.00
C356   C     0.87728   0.23946   0.08987   0.00000  Uiso   1.00
C357   C     0.79149   0.16612   0.05740   0.00000  Uiso   1.00
C358   C     0.76614   0.14027   0.05733   0.00000  Uiso   1.00
C359   C     0.75645   0.12426   0.07361   0.00000  Uiso   1.00
C360   C     0.77212   0.13423   0.08988   0.00000  Uiso   1.00
H115   H     0.78510   0.13576   0.12579   0.00000  Uiso   1.00
O115   O     0.81232   0.15163   0.15716   0.00000  Uiso   1.00
O116   O     0.85996   0.19926   0.15715   0.00000  Uiso   1.00
H116   H     0.87582   0.22645   0.12577   0.00000  Uiso   1.00
H117   H     0.83472   0.21421   0.04421   0.00000  Uiso   1.00
O117   O     0.88154   0.26117   0.04098   0.00000  Uiso   1.00
O118   O     0.91332   0.28052   0.07335   0.00000  Uiso   1.00
H118   H     0.89107   0.24848   0.10166   0.00000  Uiso   1.00
H119   H     0.79723   0.17688   0.04424   0.00000  Uiso   1.00
O119   O     0.75031   0.13001   0.04101   0.00000  Uiso   1.00
O120   O     0.73105   0.09818   0.07337   0.00000  Uiso   1.00
H120   H     0.76314   0.12042   0.10167   0.00000  Uiso   1.00
C361   C     0.81429   0.64883   0.10720   0.00000  Uiso   1.00
C362   C     0.84056   0.64856   0.10723   0.00000  Uiso   1.00
C363   C     0.85085   0.64285   0.09048   0.00000  Uiso   1.00
C364   C     0.83456   0.63662   0.07376   0.00000  Uiso   1.00
C365   C     0.80827   0.63672   0.07375   0.00000  Uiso   1.00
C366   C     0.79821   0.64298   0.09046   0.00000  Uiso   1.00
C367   C     0.84534   0.63060   0.05739   0.00000  Uiso   1.00
C368   C     0.87119   0.63112   0.05732   0.00000  Uiso   1.00
C369   C     0.88728   0.63760   0.07358   0.00000  Uiso   1.00
C370   C     0.87734   0.64337   0.08984   0.00000  Uiso   1.00
C371   C     0.80495   0.65501   0.12417   0.00000  Uiso   1.00
C372   C     0.82082   0.66051   0.14032   0.00000  Uiso   1.00
C373   C     0.84558   0.65995   0.14039   0.00000  Uiso   1.00
C374   C     0.85573   0.65401   0.12431   0.00000  Uiso   1.00
C375   C     0.77209   0.64320   0.08986   0.00000  Uiso   1.00
C376   C     0.75646   0.63755   0.07358   0.00000  Uiso   1.00
C377   C     0.76623   0.63138   0.05727   0.00000  Uiso   1.00
C378   C     0.79160   0.63093   0.05734   0.00000  Uiso   1.00
H121   H     0.83452   0.62545   0.04426   0.00000  Uiso   1.00
O121   O     0.88141   0.62547   0.04101   0.00000  Uiso   1.00
O122   O     0.91339   0.63837   0.07332   0.00000  Uiso   1.00
H122   H     0.89127   0.64846   0.10159   0.00000  Uiso   1.00
H123   H     0.78564   0.65579   0.12561   0.00000  Uiso   1.00
O123   O     0.81261   0.66665   0.15705   0.00000  Uiso   1.00
O124   O     0.85968   0.66556   0.15721   0.00000  Uiso   1.00
H124   H     0.87526   0.65371   0.12589   0.00000  Uiso   1.00
H125   H     0.76296   0.64775   0.10168   0.00000  Uiso   1.00
O125   O     0.73101   0.63813   0.07334   0.00000  Uiso   1.00
O126   O     0.75045   0.62589   0.04094   0.00000  Uiso   1.00
H126   H     0.79742   0.62607   0.04416   0.00000  Uiso   1.00
C379   C     0.17127   0.36274   0.90797   0.00000  Uiso   1.00
C380   C     0.19756   0.36250   0.90801   0.00000  Uiso   1.00
C381   C     0.21362   0.36833   0.92475   0.00000  Uiso   1.00
C382   C     0.20354   0.37456   0.94147   0.00000  Uiso   1.00
C383   C     0.17724   0.37464   0.94145   0.00000  Uiso   1.00
C384   C     0.16097   0.36845   0.92473   0.00000  Uiso   1.00
C385   C     0.22020   0.38034   0.95788   0.00000  Uiso   1.00
C386   C     0.24557   0.37989   0.95795   0.00000  Uiso   1.00
C387   C     0.25536   0.37375   0.94164   0.00000  Uiso   1.00
C388   C     0.23974   0.36811   0.92535   0.00000  Uiso   1.00
C389   C     0.15608   0.35724   0.89090   0.00000  Uiso   1.00
C390   C     0.16625   0.35133   0.87481   0.00000  Uiso   1.00
C391   C     0.19105   0.35085   0.87488   0.00000  Uiso   1.00
C392   C     0.20693   0.35637   0.89103   0.00000  Uiso   1.00
C393   C     0.13451   0.36798   0.92535   0.00000  Uiso   1.00
C394   C     0.12455   0.37372   0.94161   0.00000  Uiso   1.00
C395   C     0.14060   0.38012   0.95789   0.00000  Uiso   1.00
C396   C     0.16643   0.38061   0.95783   0.00000  Uiso   1.00
H127   H     0.21437   0.38520   0.97106   0.00000  Uiso   1.00
O127   O     0.26135   0.38538   0.97428   0.00000  Uiso   1.00
O128   O     0.28081   0.37318   0.94187   0.00000  Uiso   1.00
H128   H     0.24888   0.36357   0.91353   0.00000  Uiso   1.00
H129   H     0.13650   0.35745   0.88933   0.00000  Uiso   1.00
O129   O     0.15214   0.34569   0.85801   0.00000  Uiso   1.00
O130   O     0.19929   0.34474   0.85814   0.00000  Uiso   1.00
H130   H     0.22626   0.35564   0.88958   0.00000  Uiso   1.00
H131   H     0.12062   0.36298   0.91359   0.00000  Uiso   1.00
O131   O     0.09846   0.37299   0.94186   0.00000  Uiso   1.00
O132   O     0.13035   0.38572   0.97420   0.00000  Uiso   1.00
H132   H     0.17721   0.38568   0.97097   0.00000  Uiso   1.00
C397   C     0.63699   0.80800   0.94147   0.00000  Uiso   1.00
C398   C     0.64322   0.79794   0.92475   0.00000  Uiso   1.00
C399   C     0.64905   0.81400   0.90801   0.00000  Uiso   1.00
C400   C     0.64882   0.84030   0.90798   0.00000  Uiso   1.00
C401   C     0.64309   0.85058   0.92474   0.00000  Uiso   1.00
C402   C     0.63692   0.83431   0.94146   0.00000  Uiso   1.00
C403   C     0.65437   0.85551   0.89092   0.00000  Uiso   1.00
C404   C     0.66027   0.84535   0.87483   0.00000  Uiso   1.00
C405   C     0.66071   0.82053   0.87489   0.00000  Uiso   1.00
C406   C     0.65516   0.80462   0.89102   0.00000  Uiso   1.00
C407   C     0.63117   0.79131   0.95787   0.00000  Uiso   1.00
C408   C     0.63163   0.76595   0.95794   0.00000  Uiso   1.00
C409   C     0.63781   0.75619   0.94163   0.00000  Uiso   1.00
C410   C     0.64346   0.77183   0.92535   0.00000  Uiso   1.00
C411   C     0.63100   0.84513   0.95785   0.00000  Uiso   1.00
C412   C     0.63146   0.87095   0.95791   0.00000  Uiso   1.00
C413   C     0.63778   0.88697   0.94163   0.00000  Uiso   1.00
C414   C     0.64350   0.87701   0.92536   0.00000  Uiso   1.00
H133   H     0.65423   0.87514   0.88936   0.00000  Uiso   1.00
O133   O     0.66595   0.85949   0.85803   0.00000  Uiso   1.00
O134   O     0.66680   0.81229   0.85814   0.00000  Uiso   1.00
H134   H     0.65583   0.78527   0.88957   0.00000  Uiso   1.00
H135   H     0.62625   0.79711   0.97104   0.00000  Uiso   1.00
O135   O     0.62611   0.75016   0.97427   0.00000  Uiso   1.00
O136   O     0.63840   0.73075   0.94186   0.00000  Uiso   1.00
H136   H     0.64805   0.76271   0.91353   0.00000  Uiso   1.00
H137   H     0.62599   0.83438   0.97100   0.00000  Uiso   1.00
O137   O     0.62589   0.88121   0.97423   0.00000  Uiso   1.00
O138   O     0.63847   0.91304   0.94188   0.00000  Uiso   1.00
H138   H     0.64843   0.89087   0.91359   0.00000  Uiso   1.00
C415   C     0.20355   0.83434   0.94146   0.00000  Uiso   1.00
C416   C     0.21368   0.85060   0.92473   0.00000  Uiso   1.00
C417   C     0.19764   0.84034   0.90798   0.00000  Uiso   1.00
C418   C     0.17123   0.81392   0.90797   0.00000  Uiso   1.00
C419   C     0.16095   0.79788   0.92472   0.00000  Uiso   1.00
C420   C     0.17721   0.80799   0.94145   0.00000  Uiso   1.00
C421   C     0.15589   0.80439   0.89094   0.00000  Uiso   1.00
C422   C     0.16615   0.82039   0.87483   0.00000  Uiso   1.00
C423   C     0.19118   0.84546   0.87485   0.00000  Uiso   1.00
C424   C     0.20715   0.85573   0.89096   0.00000  Uiso   1.00
C425   C     0.22021   0.84523   0.95787   0.00000  Uiso   1.00
C426   C     0.24561   0.87104   0.95793   0.00000  Uiso   1.00
C427   C     0.25542   0.88696   0.94162   0.00000  Uiso   1.00
C428   C     0.23980   0.87695   0.92533   0.00000  Uiso   1.00
C429   C     0.16636   0.79126   0.95784   0.00000  Uiso   1.00
C430   C     0.14053   0.76589   0.95790   0.00000  Uiso   1.00
C431   C     0.12456   0.75615   0.94160   0.00000  Uiso   1.00
C432   C     0.13455   0.77181   0.92533   0.00000  Uiso   1.00
H139   H     0.13607   0.78480   0.88942   0.00000  Uiso   1.00
O139   O     0.15193   0.81203   0.85806   0.00000  Uiso   1.00
O140   O     0.19952   0.85972   0.85808   0.00000  Uiso   1.00
H140   H     0.22667   0.87561   0.88947   0.00000  Uiso   1.00
H141   H     0.21437   0.83456   0.97105   0.00000  Uiso   1.00
O141   O     0.26137   0.88134   0.97427   0.00000  Uiso   1.00
O142   O     0.28088   0.91298   0.94185   0.00000  Uiso   1.00
H142   H     0.24891   0.89067   0.91352   0.00000  Uiso   1.00
H143   H     0.17710   0.79701   0.97100   0.00000  Uiso   1.00
O143   O     0.13025   0.75007   0.97422   0.00000  Uiso   1.00
O144   O     0.09851   0.73073   0.94183   0.00000  Uiso   1.00
H144   H     0.12078   0.76278   0.91353   0.00000  Uiso   1.00
C433   C     0.04165   0.51039   0.40708   0.00000  Uiso   1.00
C434   C     0.03543   0.49410   0.42380   0.00000  Uiso   1.00
C435   C     0.02972   0.50440   0.44056   0.00000  Uiso   1.00
C436   C     0.02945   0.53066   0.44052   0.00000  Uiso   1.00
C437   C     0.03529   0.54674   0.42378   0.00000  Uiso   1.00
C438   C     0.04154   0.53667   0.40706   0.00000  Uiso   1.00
C439   C     0.02325   0.54000   0.45749   0.00000  Uiso   1.00
C440   C     0.01776   0.52413   0.47364   0.00000  Uiso   1.00
C441   C     0.01833   0.49938   0.47372   0.00000  Uiso   1.00
C442   C     0.02427   0.48923   0.45764   0.00000  Uiso   1.00
C443   C     0.04768   0.49961   0.39072   0.00000  Uiso   1.00
C444   C     0.04717   0.47376   0.39065   0.00000  Uiso   1.00
C445   C     0.04068   0.45767   0.40691   0.00000  Uiso   1.00
C446   C     0.03491   0.46761   0.42317   0.00000  Uiso   1.00
C447   C     0.04731   0.55333   0.39065   0.00000  Uiso   1.00
C448   C     0.04686   0.57869   0.39058   0.00000  Uiso   1.00
C449   C     0.04073   0.58849   0.40689   0.00000  Uiso   1.00
C450   C     0.03510   0.57287   0.42318   0.00000  Uiso   1.00
H145   H     0.02245   0.55930   0.45892   0.00000  Uiso   1.00
O145   O     0.01160   0.53234   0.49037   0.00000  Uiso   1.00
O146   O     0.01273   0.48529   0.49053   0.00000  Uiso   1.00
H146   H     0.02458   0.46970   0.45922   0.00000  Uiso   1.00
H147   H     0.05284   0.51043   0.37758   0.00000  Uiso   1.00
O147   O     0.05281   0.46353   0.37434   0.00000  Uiso   1.00
O148   O     0.03991   0.43156   0.40666   0.00000  Uiso   1.00
H148   H     0.02982   0.45369   0.43492   0.00000  Uiso   1.00
H149   H     0.05214   0.54748   0.37747   0.00000  Uiso   1.00
O149   O     0.05234   0.59447   0.37425   0.00000  Uiso   1.00
O150   O     0.04016   0.61394   0.40666   0.00000  Uiso   1.00
H150   H     0.03058   0.58202   0.43501   0.00000  Uiso   1.00
C451   C     0.50133   0.53669   0.40710   0.00000  Uiso   1.00
C452   C     0.51762   0.54678   0.42382   0.00000  Uiso   1.00
C453   C     0.50735   0.53074   0.44056   0.00000  Uiso   1.00
C454   C     0.48093   0.50433   0.44056   0.00000  Uiso   1.00
C455   C     0.46488   0.49407   0.42382   0.00000  Uiso   1.00
C456   C     0.47498   0.51035   0.40710   0.00000  Uiso   1.00
C457   C     0.47141   0.48897   0.45759   0.00000  Uiso   1.00
C458   C     0.48739   0.49924   0.47370   0.00000  Uiso   1.00
C459   C     0.51244   0.52429   0.47370   0.00000  Uiso   1.00
C460   C     0.52270   0.54028   0.45759   0.00000  Uiso   1.00
C461   C     0.51218   0.55342   0.39070   0.00000  Uiso   1.00
C462   C     0.53801   0.57878   0.39064   0.00000  Uiso   1.00
C463   C     0.55400   0.58851   0.40693   0.00000  Uiso   1.00
C464   C     0.54402   0.57285   0.42320   0.00000  Uiso   1.00
C465   C     0.45828   0.49948   0.39070   0.00000  Uiso   1.00
C466   C     0.43290   0.47366   0.39063   0.00000  Uiso   1.00
C467   C     0.42315   0.45770   0.40693   0.00000  Uiso   1.00
C468   C     0.43880   0.46768   0.42321   0.00000  Uiso   1.00
H151   H     0.45185   0.46912   0.45910   0.00000  Uiso   1.00
O151   O     0.47904   0.48500   0.49047   0.00000  Uiso   1.00
O152   O     0.52667   0.53265   0.49047   0.00000  Uiso   1.00
H152   H     0.54254   0.55985   0.45910   0.00000  Uiso   1.00
H153   H     0.50144   0.54765   0.37754   0.00000  Uiso   1.00
O153   O     0.54829   0.59459   0.37431   0.00000  Uiso   1.00
O154   O     0.58006   0.61392   0.40669   0.00000  Uiso   1.00
H154   H     0.55781   0.58187   0.43499   0.00000  Uiso   1.00
H155   H     0.46407   0.51020   0.37753   0.00000  Uiso   1.00
O155   O     0.41711   0.46338   0.37431   0.00000  Uiso   1.00
O156   O     0.39772   0.43165   0.40670   0.00000  Uiso   1.00
H156   H     0.42975   0.45392   0.43501   0.00000  Uiso   1.00
C469   C     0.48099   0.98218   0.44057   0.00000  Uiso   1.00
C470   C     0.50726   0.98192   0.44061   0.00000  Uiso   1.00
C471   C     0.51757   0.97621   0.42385   0.00000  Uiso   1.00
C472   C     0.50127   0.96998   0.40713   0.00000  Uiso   1.00
C473   C     0.47498   0.97008   0.40711   0.00000  Uiso   1.00
C474   C     0.46492   0.97634   0.42382   0.00000  Uiso   1.00
C475   C     0.51206   0.96397   0.39077   0.00000  Uiso   1.00
C476   C     0.53791   0.96449   0.39069   0.00000  Uiso   1.00
C477   C     0.55399   0.97097   0.40696   0.00000  Uiso   1.00
C478   C     0.54405   0.97673   0.42322   0.00000  Uiso   1.00
C479   C     0.47163   0.98835   0.45755   0.00000  Uiso   1.00
C480   C     0.48751   0.99385   0.47369   0.00000  Uiso   1.00
C481   C     0.51228   0.99331   0.47377   0.00000  Uiso   1.00
C482   C     0.52243   0.98738   0.45768   0.00000  Uiso   1.00
C483   C     0.43880   0.97656   0.42323   0.00000  Uiso   1.00
C484   C     0.42317   0.97091   0.40694   0.00000  Uiso   1.00
C485   C     0.43295   0.96475   0.39063   0.00000  Uiso   1.00
C486   C     0.45832   0.96430   0.39071   0.00000  Uiso   1.00
H157   H     0.50124   0.95883   0.37763   0.00000  Uiso   1.00
O157   O     0.54814   0.95886   0.37439   0.00000  Uiso   1.00
O158   O     0.58011   0.97174   0.40670   0.00000  Uiso   1.00
H158   H     0.55797   0.98182   0.43497   0.00000  Uiso   1.00
H159   H     0.45233   0.98913   0.45898   0.00000  Uiso   1.00
O159   O     0.47929   0.99997   0.49043   0.00000  Uiso   1.00
O160   O     0.52638   0.99891   0.49058   0.00000  Uiso   1.00
H160   H     0.54197   0.98708   0.45926   0.00000  Uiso   1.00
H161   H     0.42966   0.98110   0.43505   0.00000  Uiso   1.00
O161   O     0.39773   0.97149   0.40671   0.00000  Uiso   1.00
O162   O     0.41717   0.95926   0.37430   0.00000  Uiso   1.00
H162   H     0.46415   0.95944   0.37753   0.00000  Uiso   1.00
C487   C     0.83800   0.69615   0.24129   0.00000  Uiso   1.00
C488   C     0.86426   0.69587   0.24133   0.00000  Uiso   1.00
C489   C     0.88033   0.70171   0.25807   0.00000  Uiso   1.00
C490   C     0.87028   0.70798   0.27478   0.00000  Uiso   1.00
C491   C     0.84399   0.70807   0.27476   0.00000  Uiso   1.00
C492   C     0.82770   0.70186   0.25804   0.00000  Uiso   1.00
C493   C     0.88695   0.71377   0.29118   0.00000  Uiso   1.00
C494   C     0.91232   0.71332   0.29125   0.00000  Uiso   1.00
C495   C     0.92209   0.70714   0.27495   0.00000  Uiso   1.00
C496   C     0.90645   0.70149   0.25867   0.00000  Uiso   1.00
C497   C     0.82283   0.69069   0.22421   0.00000  Uiso   1.00
C498   C     0.83297   0.68475   0.20813   0.00000  Uiso   1.00
C499   C     0.85773   0.68419   0.20821   0.00000  Uiso   1.00
C500   C     0.87360   0.68968   0.22435   0.00000  Uiso   1.00
C501   C     0.80122   0.70136   0.25868   0.00000  Uiso   1.00
C502   C     0.79128   0.70712   0.27494   0.00000  Uiso   1.00
C503   C     0.80735   0.71356   0.29121   0.00000  Uiso   1.00
C504   C     0.83319   0.71406   0.29113   0.00000  Uiso   1.00
H163   H     0.88114   0.71865   0.30436   0.00000  Uiso   1.00
O163   O     0.92810   0.71882   0.30758   0.00000  Uiso   1.00
O164   O     0.94753   0.70656   0.27518   0.00000  Uiso   1.00
H164   H     0.91559   0.69694   0.24684   0.00000  Uiso   1.00
H165   H     0.80329   0.69099   0.22263   0.00000  Uiso   1.00
O165   O     0.81887   0.67914   0.19132   0.00000  Uiso   1.00
O166   O     0.86594   0.67804   0.19147   0.00000  Uiso   1.00
H166   H     0.89290   0.68889   0.22291   0.00000  Uiso   1.00
H167   H     0.78731   0.69629   0.24693   0.00000  Uiso   1.00
O167   O     0.76517   0.70636   0.27519   0.00000  Uiso   1.00
O168   O     0.79711   0.71918   0.30752   0.00000  Uiso   1.00
H168   H     0.84399   0.71917   0.30428   0.00000  Uiso   1.00
C505   C     0.30372   0.14139   0.27481   0.00000  Uiso   1.00
C506   C     0.30998   0.13133   0.25810   0.00000  Uiso   1.00
C507   C     0.31581   0.14739   0.24136   0.00000  Uiso   1.00
C508   C     0.31554   0.17366   0.24132   0.00000  Uiso   1.00
C509   C     0.30984   0.18397   0.25807   0.00000  Uiso   1.00
C510   C     0.30362   0.16768   0.27479   0.00000  Uiso   1.00
C511   C     0.32097   0.18882   0.22424   0.00000  Uiso   1.00
C512   C     0.32690   0.17866   0.20815   0.00000  Uiso   1.00
C513   C     0.32746   0.15390   0.20823   0.00000  Uiso   1.00
C514   C     0.32198   0.13804   0.22438   0.00000  Uiso   1.00
C515   C     0.29795   0.12473   0.29122   0.00000  Uiso   1.00
C516   C     0.29840   0.09936   0.29130   0.00000  Uiso   1.00
C517   C     0.30455   0.08958   0.27499   0.00000  Uiso   1.00
C518   C     0.31019   0.10521   0.25870   0.00000  Uiso   1.00
C519   C     0.29760   0.17847   0.29116   0.00000  Uiso   1.00
C520   C     0.29812   0.20431   0.29123   0.00000  Uiso   1.00
C521   C     0.30459   0.22040   0.27497   0.00000  Uiso   1.00
C522   C     0.31036   0.21045   0.25871   0.00000  Uiso   1.00
H169   H     0.32067   0.20835   0.22266   0.00000  Uiso   1.00
O169   O     0.33249   0.19275   0.19134   0.00000  Uiso   1.00
O170   O     0.33358   0.14567   0.19150   0.00000  Uiso   1.00
H170   H     0.32277   0.11874   0.22295   0.00000  Uiso   1.00
H171   H     0.29309   0.13057   0.30440   0.00000  Uiso   1.00
O171   O     0.29291   0.08359   0.30763   0.00000  Uiso   1.00
O172   O     0.30513   0.06413   0.27522   0.00000  Uiso   1.00
H172   H     0.31473   0.09606   0.24688   0.00000  Uiso   1.00
H173   H     0.29246   0.16765   0.30430   0.00000  Uiso   1.00
O173   O     0.29248   0.21454   0.30753   0.00000  Uiso   1.00
O174   O     0.30536   0.24651   0.27522   0.00000  Uiso   1.00
H174   H     0.31545   0.22438   0.24696   0.00000  Uiso   1.00
C523   C     0.87028   0.16772   0.27479   0.00000  Uiso   1.00
C524   C     0.88038   0.18400   0.25807   0.00000  Uiso   1.00
C525   C     0.86433   0.17372   0.24132   0.00000  Uiso   1.00
C526   C     0.83791   0.14731   0.24133   0.00000  Uiso   1.00
C527   C     0.82765   0.13127   0.25808   0.00000  Uiso   1.00
C528   C     0.84394   0.14138   0.27480   0.00000  Uiso   1.00
C529   C     0.82254   0.13778   0.22430   0.00000  Uiso   1.00
C530   C     0.83281   0.15375   0.20819   0.00000  Uiso   1.00
C531   C     0.85787   0.17880   0.20818   0.00000  Uiso   1.00
C532   C     0.87386   0.18906   0.22429   0.00000  Uiso   1.00
C533   C     0.88700   0.17858   0.29118   0.00000  Uiso   1.00
C534   C     0.91238   0.20441   0.29125   0.00000  Uiso   1.00
C535   C     0.92211   0.22038   0.27495   0.00000  Uiso   1.00
C536   C     0.90646   0.21039   0.25867   0.00000  Uiso   1.00
C537   C     0.83307   0.12468   0.29120   0.00000  Uiso   1.00
C538   C     0.80725   0.09930   0.29127   0.00000  Uiso   1.00
C539   C     0.79128   0.08955   0.27497   0.00000  Uiso   1.00
C540   C     0.80126   0.10519   0.25869   0.00000  Uiso   1.00
H175   H     0.80269   0.11822   0.22280   0.00000  Uiso   1.00
O175   O     0.81856   0.14540   0.19142   0.00000  Uiso   1.00
O176   O     0.86622   0.19302   0.19141   0.00000  Uiso   1.00
H176   H     0.89344   0.20890   0.22278   0.00000  Uiso   1.00
H177   H     0.88123   0.16786   0.30435   0.00000  Uiso   1.00
O177   O     0.92818   0.21469   0.30757   0.00000  Uiso   1.00
O178   O     0.94753   0.24643   0.27518   0.00000  Uiso   1.00
H178   H     0.91549   0.22416   0.24688   0.00000  Uiso   1.00
H179   H     0.84380   0.13047   0.30437   0.00000  Uiso   1.00
O179   O     0.79697   0.08351   0.30760   0.00000  Uiso   1.00
O180   O     0.76523   0.06413   0.27521   0.00000  Uiso   1.00
H180   H     0.78749   0.09614   0.24690   0.00000  Uiso   1.00
C541   C     0.70834   0.84373   0.74045   0.00000  Uiso   1.00
C542   C     0.70211   0.82744   0.75716   0.00000  Uiso   1.00
C543   C     0.69638   0.83772   0.77392   0.00000  Uiso   1.00
C544   C     0.69617   0.86403   0.77389   0.00000  Uiso   1.00
C545   C     0.70200   0.88009   0.75715   0.00000  Uiso   1.00
C546   C     0.70825   0.87003   0.74044   0.00000  Uiso   1.00
C547   C     0.69008   0.87341   0.79088   0.00000  Uiso   1.00
C548   C     0.68453   0.85751   0.80702   0.00000  Uiso   1.00
C549   C     0.68495   0.83268   0.80708   0.00000  Uiso   1.00
C550   C     0.69085   0.82251   0.79099   0.00000  Uiso   1.00
C551   C     0.71433   0.83294   0.72408   0.00000  Uiso   1.00
C552   C     0.71382   0.80710   0.72400   0.00000  Uiso   1.00
C553   C     0.70738   0.79103   0.74027   0.00000  Uiso   1.00
C554   C     0.70162   0.80097   0.75653   0.00000  Uiso   1.00
C555   C     0.71405   0.88671   0.72403   0.00000  Uiso   1.00
C556   C     0.71360   0.91208   0.72397   0.00000  Uiso   1.00
C557   C     0.70741   0.92184   0.74027   0.00000  Uiso   1.00
C558   C     0.70176   0.90620   0.75655   0.00000  Uiso   1.00
H181   H     0.68940   0.89277   0.79234   0.00000  Uiso   1.00
O181   O     0.67845   0.86575   0.82377   0.00000  Uiso   1.00
O182   O     0.67929   0.81855   0.82388   0.00000  Uiso   1.00
H182   H     0.69103   0.80291   0.79255   0.00000  Uiso   1.00
H183   H     0.71944   0.84375   0.71094   0.00000  Uiso   1.00
O183   O     0.71944   0.79687   0.70769   0.00000  Uiso   1.00
O184   O     0.70663   0.76492   0.74001   0.00000  Uiso   1.00
H184   H     0.69659   0.78707   0.76829   0.00000  Uiso   1.00
H185   H     0.71893   0.88090   0.71086   0.00000  Uiso   1.00
O185   O     0.71909   0.92786   0.70764   0.00000  Uiso   1.00
O186   O     0.70681   0.94727   0.74004   0.00000  Uiso   1.00
H186   H     0.69717   0.91531   0.76837   0.00000  Uiso   1.00
C559   C     0.16798   0.87004   0.74044   0.00000  Uiso   1.00
C560   C     0.18426   0.88012   0.75716   0.00000  Uiso   1.00
C561   C     0.17398   0.86408   0.77391   0.00000  Uiso   1.00
C562   C     0.14757   0.83766   0.77390   0.00000  Uiso   1.00
C563   C     0.13153   0.82740   0.75715   0.00000  Uiso   1.00
C564   C     0.14164   0.84368   0.74043   0.00000  Uiso   1.00
C565   C     0.13806   0.82228   0.79092   0.00000  Uiso   1.00
C566   C     0.15403   0.83255   0.80703   0.00000  Uiso   1.00
C567   C     0.17906   0.85762   0.80705   0.00000  Uiso   1.00
C568   C     0.18932   0.87362   0.79094   0.00000  Uiso   1.00
C569   C     0.17883   0.88677   0.72405   0.00000  Uiso   1.00
C570   C     0.20466   0.91214   0.72399   0.00000  Uiso   1.00
C571   C     0.22065   0.92185   0.74028   0.00000  Uiso   1.00
C572   C     0.21067   0.90619   0.75655   0.00000  Uiso   1.00
C573   C     0.12495   0.83281   0.72403   0.00000  Uiso   1.00
C574   C     0.09958   0.80699   0.72396   0.00000  Uiso   1.00
C575   C     0.08981   0.79103   0.74026   0.00000  Uiso   1.00
C576   C     0.10544   0.80102   0.75654   0.00000  Uiso   1.00
H187   H     0.11852   0.80241   0.79242   0.00000  Uiso   1.00
O187   O     0.14568   0.81829   0.82380   0.00000  Uiso   1.00
O188   O     0.19328   0.86598   0.82382   0.00000  Uiso   1.00
H188   H     0.20913   0.89321   0.79246   0.00000  Uiso   1.00
H189   H     0.16809   0.88102   0.71089   0.00000  Uiso   1.00
O189   O     0.21494   0.92795   0.70767   0.00000  Uiso   1.00
O190   O     0.24671   0.94726   0.74004   0.00000  Uiso   1.00
H190   H     0.22446   0.91520   0.76834   0.00000  Uiso   1.00
H191   H     0.13076   0.84352   0.71085   0.00000  Uiso   1.00
O191   O     0.08379   0.79670   0.70762   0.00000  Uiso   1.00
O192   O     0.06438   0.76499   0.74002   0.00000  Uiso   1.00
H192   H     0.09638   0.78726   0.76834   0.00000  Uiso   1.00
C577   C     0.14766   0.31554   0.77386   0.00000  Uiso   1.00
C578   C     0.17394   0.31530   0.77390   0.00000  Uiso   1.00
C579   C     0.18424   0.30959   0.75714   0.00000  Uiso   1.00
C580   C     0.16795   0.30337   0.74043   0.00000  Uiso   1.00
C581   C     0.14166   0.30346   0.74041   0.00000  Uiso   1.00
C582   C     0.13160   0.30972   0.75712   0.00000  Uiso   1.00
C583   C     0.17875   0.29738   0.72405   0.00000  Uiso   1.00
C584   C     0.20460   0.29789   0.72399   0.00000  Uiso   1.00
C585   C     0.22067   0.30433   0.74025   0.00000  Uiso   1.00
C586   C     0.21072   0.31009   0.75651   0.00000  Uiso   1.00
C587   C     0.13827   0.32165   0.79085   0.00000  Uiso   1.00
C588   C     0.15415   0.32716   0.80699   0.00000  Uiso   1.00
C589   C     0.17895   0.32668   0.80706   0.00000  Uiso   1.00
C590   C     0.18912   0.32078   0.79097   0.00000  Uiso   1.00
C591   C     0.10550   0.30997   0.75651   0.00000  Uiso   1.00
C592   C     0.08986   0.30432   0.74023   0.00000  Uiso   1.00
C593   C     0.09963   0.29813   0.72393   0.00000  Uiso   1.00
C594   C     0.12499   0.29766   0.72400   0.00000  Uiso   1.00
H193   H     0.16795   0.29227   0.71091   0.00000  Uiso   1.00
O193   O     0.21483   0.29226   0.70768   0.00000  Uiso   1.00
O194   O     0.24677   0.30509   0.74000   0.00000  Uiso   1.00
H194   H     0.22463   0.31514   0.76827   0.00000  Uiso   1.00
H195   H     0.11893   0.32236   0.79230   0.00000  Uiso   1.00
O195   O     0.14590   0.33324   0.82374   0.00000  Uiso   1.00
O196   O     0.19305   0.33229   0.82387   0.00000  Uiso   1.00
H196   H     0.20870   0.32055   0.79254   0.00000  Uiso   1.00
H197   H     0.09638   0.31457   0.76833   0.00000  Uiso   1.00
O197   O     0.06443   0.30492   0.74000   0.00000  Uiso   1.00
O198   O     0.08384   0.29262   0.70760   0.00000  Uiso   1.00
H198   H     0.13080   0.29277   0.71083   0.00000  Uiso   1.00
C595   C     0.50465   0.02946   0.57467   0.00000  Uiso   1.00
C596   C     0.53092   0.02919   0.57471   0.00000  Uiso   1.00
C597   C     0.54699   0.03503   0.59145   0.00000  Uiso   1.00
C598   C     0.53693   0.04129   0.60816   0.00000  Uiso   1.00
C599   C     0.51064   0.04138   0.60814   0.00000  Uiso   1.00
C600   C     0.49436   0.03518   0.59142   0.00000  Uiso   1.00
C601   C     0.55360   0.04707   0.62457   0.00000  Uiso   1.00
C602   C     0.57896   0.04662   0.62464   0.00000  Uiso   1.00
C603   C     0.58875   0.04046   0.60833   0.00000  Uiso   1.00
C604   C     0.57312   0.03482   0.59205   0.00000  Uiso   1.00
C605   C     0.48949   0.02401   0.55759   0.00000  Uiso   1.00
C606   C     0.49963   0.01806   0.54150   0.00000  Uiso   1.00
C607   C     0.52440   0.01751   0.54158   0.00000  Uiso   1.00
C608   C     0.54027   0.02301   0.55773   0.00000  Uiso   1.00
C609   C     0.46788   0.03468   0.59205   0.00000  Uiso   1.00
C610   C     0.45794   0.04044   0.60831   0.00000  Uiso   1.00
C611   C     0.47400   0.04688   0.62458   0.00000  Uiso   1.00
C612   C     0.49984   0.04738   0.62451   0.00000  Uiso   1.00
H199   H     0.54777   0.05193   0.63775   0.00000  Uiso   1.00
O199   O     0.59474   0.05211   0.64097   0.00000  Uiso   1.00
O200   O     0.61419   0.03989   0.60856   0.00000  Uiso   1.00
H200   H     0.58226   0.03028   0.58022   0.00000  Uiso   1.00
H201   H     0.46993   0.02428   0.55601   0.00000  Uiso   1.00
O201   O     0.48554   0.01245   0.52469   0.00000  Uiso   1.00
O202   O     0.53262   0.01138   0.52485   0.00000  Uiso   1.00
H202   H     0.55958   0.02223   0.55629   0.00000  Uiso   1.00
H203   H     0.45398   0.02963   0.58030   0.00000  Uiso   1.00
O203   O     0.43184   0.03969   0.60856   0.00000  Uiso   1.00
O204   O     0.46377   0.05250   0.64089   0.00000  Uiso   1.00
H204   H     0.51064   0.05248   0.63765   0.00000  Uiso   1.00
C613   C     0.97037   0.47474   0.60811   0.00000  Uiso   1.00
C614   C     0.97661   0.46467   0.59140   0.00000  Uiso   1.00
C615   C     0.98246   0.48074   0.57466   0.00000  Uiso   1.00
C616   C     0.98219   0.50701   0.57462   0.00000  Uiso   1.00
C617   C     0.97649   0.51732   0.59138   0.00000  Uiso   1.00
C618   C     0.97026   0.50102   0.60809   0.00000  Uiso   1.00
C619   C     0.98762   0.52216   0.55754   0.00000  Uiso   1.00
C620   C     0.99356   0.51202   0.54145   0.00000  Uiso   1.00
C621   C     0.99412   0.48726   0.54154   0.00000  Uiso   1.00
C622   C     0.98864   0.47139   0.55768   0.00000  Uiso   1.00
C623   C     0.96461   0.45808   0.62453   0.00000  Uiso   1.00
C624   C     0.96504   0.43271   0.62459   0.00000  Uiso   1.00
C625   C     0.97118   0.42291   0.60828   0.00000  Uiso   1.00
C626   C     0.97681   0.43854   0.59200   0.00000  Uiso   1.00
C627   C     0.96424   0.51181   0.62446   0.00000  Uiso   1.00
C628   C     0.96476   0.53766   0.62453   0.00000  Uiso   1.00
C629   C     0.97126   0.55375   0.60827   0.00000  Uiso   1.00
C630   C     0.97703   0.54381   0.59201   0.00000  Uiso   1.00
H205   H     0.98729   0.54169   0.55596   0.00000  Uiso   1.00
O205   O     0.99915   0.52610   0.52464   0.00000  Uiso   1.00
O206   O     1.00026   0.47904   0.52480   0.00000  Uiso   1.00
H206   H     0.98945   0.45210   0.55625   0.00000  Uiso   1.00
H207   H     0.95978   0.46393   0.63771   0.00000  Uiso   1.00
O207   O     0.95957   0.41694   0.64093   0.00000  Uiso   1.00
O208   O     0.97174   0.39746   0.60851   0.00000  Uiso   1.00
H208   H     0.98133   0.42938   0.58017   0.00000  Uiso   1.00
H209   H     0.95907   0.50098   0.63759   0.00000  Uiso   1.00
O209   O     0.95911   0.54788   0.64083   0.00000  Uiso   1.00
O210   O     0.97204   0.57987   0.60853   0.00000  Uiso   1.00
H210   H     0.98215   0.55774   0.58027   0.00000  Uiso   1.00
C631   C     0.53696   0.50108   0.60812   0.00000  Uiso   1.00
C632   C     0.54705   0.51737   0.59140   0.00000  Uiso   1.00
C633   C     0.53101   0.50709   0.57465   0.00000  Uiso   1.00
C634   C     0.50461   0.48067   0.57465   0.00000  Uiso   1.00
C635   C     0.49434   0.46464   0.59140   0.00000  Uiso   1.00
C636   C     0.51062   0.47474   0.60812   0.00000  Uiso   1.00
C637   C     0.48926   0.47113   0.55762   0.00000  Uiso   1.00
C638   C     0.49952   0.48712   0.54151   0.00000  Uiso   1.00
C639   C     0.52456   0.51218   0.54151   0.00000  Uiso   1.00
C640   C     0.54054   0.52245   0.55762   0.00000  Uiso   1.00
C641   C     0.55368   0.51194   0.62451   0.00000  Uiso   1.00
C642   C     0.57904   0.53777   0.62458   0.00000  Uiso   1.00
C643   C     0.58878   0.55375   0.60828   0.00000  Uiso   1.00
C644   C     0.57313   0.54377   0.59201   0.00000  Uiso   1.00
C645   C     0.49976   0.45802   0.62451   0.00000  Uiso   1.00
C646   C     0.47394   0.43265   0.62458   0.00000  Uiso   1.00
C647   C     0.45796   0.42291   0.60829   0.00000  Uiso   1.00
C648   C     0.46794   0.43856   0.59201   0.00000  Uiso   1.00
H211   H     0.46943   0.45156   0.55611   0.00000  Uiso   1.00
O211   O     0.48529   0.47875   0.52473   0.00000  Uiso   1.00
O212   O     0.53291   0.52641   0.52474   0.00000  Uiso   1.00
H212   H     0.56010   0.54230   0.55612   0.00000  Uiso   1.00
H213   H     0.54790   0.50122   0.63768   0.00000  Uiso   1.00
O213   O     0.59485   0.54805   0.64090   0.00000  Uiso   1.00
O214   O     0.61420   0.57981   0.60852   0.00000  Uiso   1.00
H214   H     0.58216   0.55754   0.58021   0.00000  Uiso   1.00
H215   H     0.51049   0.46381   0.63768   0.00000  Uiso   1.00
O215   O     0.46366   0.41685   0.64091   0.00000  Uiso   1.00
O216   O     0.43191   0.39749   0.60853   0.00000  Uiso   1.00
H216   H     0.45416   0.42953   0.58022   0.00000  Uiso   1.00
Cu1    Cu    0.33925   0.17232   0.17428   0.00000  Uiso   1.00
Cu2    Cu    0.83927   0.17233   0.17428   0.00000  Uiso   1.00
Cu3    Cu    0.83928   0.67235   0.17426   0.00000  Uiso   1.00
Cu4    Cu    0.17259   0.33899   0.84094   0.00000  Uiso   1.00
Cu5    Cu    0.67262   0.83902   0.84095   0.00000  Uiso   1.00
Cu6    Cu    0.17260   0.83900   0.84094   0.00000  Uiso   1.00
Cu7    Cu    0.00593   0.50569   0.50759   0.00000  Uiso   1.00
Cu8    Cu    0.50598   0.50570   0.50760   0.00000  Uiso   1.00
Cu9    Cu    0.50595   0.00567   0.50764   0.00000  Uiso   1.00
Cu10   Cu    0.50586   0.00556   0.00767   0.00000  Uiso   1.00
Cu11   Cu    0.00589   0.50563   0.00759   0.00000  Uiso   1.00
Cu12   Cu    0.50590   0.50563   0.00761   0.00000  Uiso   1.00
Cu13   Cu    0.17264   0.33904   0.34093   0.00000  Uiso   1.00
Cu14   Cu    0.67264   0.83904   0.34096   0.00000  Uiso   1.00
Cu15   Cu    0.17263   0.83903   0.34094   0.00000  Uiso   1.00
Cu16   Cu    0.83931   0.67239   0.67426   0.00000  Uiso   1.00
Cu17   Cu    0.33931   0.17239   0.67429   0.00000  Uiso   1.00
Cu18   Cu    0.83930   0.17239   0.67429   0.00000  Uiso   1.00
Zn1    Zn    0.29039   0.91439   0.96590   0.00000  Uiso   1.00
Zn2    Zn    0.09717   0.38139   0.96587   0.00000  Uiso   1.00
Zn3    Zn    0.63021   0.72119   0.96590   0.00000  Uiso   1.00
Zn4    Zn    0.91466   0.29011   0.04932   0.00000  Uiso   1.00
Zn5    Zn    0.72146   0.62996   0.04930   0.00000  Uiso   1.00
Zn6    Zn    0.38165   0.09690   0.04935   0.00000  Uiso   1.00
Zn7    Zn    0.72141   0.09686   0.04935   0.00000  Uiso   1.00
Zn8    Zn    0.91463   0.62988   0.04932   0.00000  Uiso   1.00
Zn9    Zn    0.38158   0.29007   0.04930   0.00000  Uiso   1.00
Zn10   Zn    0.09714   0.72114   0.96587   0.00000  Uiso   1.00
Zn11   Zn    0.29035   0.38132   0.96592   0.00000  Uiso   1.00
Zn12   Zn    0.63014   0.91436   0.96590   0.00000  Uiso   1.00
Zn13   Zn    0.95713   0.24780   0.29921   0.00000  Uiso   1.00
Zn14   Zn    0.76391   0.71480   0.29920   0.00000  Uiso   1.00
Zn15   Zn    0.29697   0.05459   0.29927   0.00000  Uiso   1.00
Zn16   Zn    0.58140   0.62352   0.38266   0.00000  Uiso   1.00
Zn17   Zn    0.38818   0.96333   0.38266   0.00000  Uiso   1.00
Zn18   Zn    0.04840   0.43032   0.38266   0.00000  Uiso   1.00
Zn19   Zn    0.38815   0.43028   0.38266   0.00000  Uiso   1.00
Zn20   Zn    0.58136   0.96327   0.38270   0.00000  Uiso   1.00
Zn21   Zn    0.04830   0.62347   0.38261   0.00000  Uiso   1.00
Zn22   Zn    0.76387   0.05455   0.29925   0.00000  Uiso   1.00
Zn23   Zn    0.95708   0.71473   0.29923   0.00000  Uiso   1.00
Zn24   Zn    0.29689   0.24776   0.29922   0.00000  Uiso   1.00
Zn25   Zn    0.62379   0.58116   0.63255   0.00000  Uiso   1.00
Zn26   Zn    0.43057   0.04813   0.63257   0.00000  Uiso   1.00
Zn27   Zn    0.96361   0.38793   0.63257   0.00000  Uiso   1.00
Zn28   Zn    0.24806   0.95688   0.71602   0.00000  Uiso   1.00
Zn29   Zn    0.05487   0.29672   0.71595   0.00000  Uiso   1.00
Zn30   Zn    0.71507   0.76367   0.71601   0.00000  Uiso   1.00
Zn31   Zn    0.05482   0.76362   0.71598   0.00000  Uiso   1.00
Zn32   Zn    0.24803   0.29664   0.71600   0.00000  Uiso   1.00
Zn33   Zn    0.71500   0.95684   0.71600   0.00000  Uiso   1.00
Zn34   Zn    0.43055   0.38790   0.63256   0.00000  Uiso   1.00
Zn35   Zn    0.62374   0.04805   0.63261   0.00000  Uiso   1.00
Zn36   Zn    0.96355   0.58111   0.63252   0.00000  Uiso   1.00
loop_
_geom_bond_atom_site_label_1
_geom_bond_atom_site_label_2
_geom_bond_distance
_geom_bond_site_symmetry_2
_ccdc_geom_bond_type
C1     C2      1.429   1_554 A
C1     C6      1.427   1_565 A
C1     C11     1.423   1_554 A
C2     C1      1.429   1_556 A
C2     C3      1.426   1_556 A
C2     C14     1.423   .     A
C3     C2      1.426   1_554 A
C3     C4      1.433   1_565 A
C3     C10     1.425   1_554 A
C4     C3      1.433   1_545 A
C4     C5      1.427   .     A
C4     C7      1.425   .     A
C5     C6      1.429   .     A
C5     C18     1.423   .     A
C6     C1      1.427   1_545 A
C6     C15     1.423   .     A
C7     C8      1.388   .     A
C7     H1      1.075   .     S
C8     C9      1.360   1_545 A
C8     O1      1.382   .     S
C9     C8      1.360   1_565 A
C9     C10     1.388   1_554 A
C9     O2      1.382   1_554 S
C10    C9      1.388   1_556 A
C10    C3      1.425   1_556 A
C10    H2      1.075   .     S
C11    C1      1.423   1_556 A
C11    C12     1.389   .     A
C11    H3      1.075   1_556 S
C12    C13     1.397   .     A
C12    O3      1.396   .     S
C13    C14     1.389   .     A
C13    O4      1.397   .     S
C14    H4      1.075   .     S
C15    C16     1.389   .     A
C15    H5      1.075   .     S
C16    C17     1.397   .     A
C16    O5      1.396   .     S
C17    C18     1.389   .     A
C17    O6      1.397   .     S
C18    H6      1.075   .     S
O1     Cu10    1.810   .     S
O2     C9      1.382   1_556 S
O2     Cu10    1.810   1_566 S
H3     C11     1.075   1_554 S
O3     Zn1     1.798   .     S
O4     Zn1     1.799   .     S
O5     Zn6     1.798   .     S
O6     Zn6     1.799   .     S
C19    C20     1.429   .     A
C19    C24     1.427   .     A
C19    C29     1.423   .     A
C20    C21     1.427   1_655 A
C20    C32     1.423   .     A
C21    C20     1.427   1_455 A
C21    C22     1.429   1_554 A
C21    C28     1.423   1_554 A
C22    C21     1.429   1_556 A
C22    C23     1.427   1_556 A
C22    C25     1.423   .     A
C23    C22     1.427   1_554 A
C23    C24     1.433   1_455 A
C23    C36     1.425   1_554 A
C24    C23     1.433   1_655 A
C24    C33     1.425   .     A
C25    C26     1.389   .     A
C25    H7      1.075   .     S
C26    C27     1.397   .     A
C26    O7      1.397   .     S
C27    C28     1.389   .     A
C27    O8      1.396   .     S
C28    C21     1.423   1_556 A
C28    H8      1.075   1_556 S
C29    C30     1.389   .     A
C29    H9      1.075   .     S
C30    C31     1.397   .     A
C30    O9      1.397   .     S
C31    C32     1.389   .     A
C31    O10     1.396   .     S
C32    H10     1.075   .     S
C33    C34     1.388   .     A
C33    H11     1.075   .     S
C34    C35     1.360   1_655 A
C34    O11     1.382   .     S
C35    C34     1.360   1_455 A
C35    C36     1.388   1_554 A
C35    O12     1.382   1_554 S
C36    C23     1.425   1_556 A
C36    C35     1.388   1_556 A
C36    H12     1.075   .     S
O7     Zn2     1.799   .     S
O8     Zn2     1.798   .     S
H8     C28     1.075   1_554 S
O9     Zn4     1.799   .     S
O10    Zn4     1.798   .     S
O11    Cu11    1.810   1_655 S
O12    C35     1.382   1_556 S
O12    Cu11    1.810   1_556 S
C37    C38     1.429   1_556 A
C37    C42     1.427   1_556 A
C37    C47     1.423   .     A
C38    C37     1.429   1_554 A
C38    C39     1.427   .     A
C38    C50     1.423   1_554 A
C39    C40     1.429   .     A
C39    C46     1.423   .     A
C40    C41     1.427   .     A
C40    C43     1.423   .     A
C41    C42     1.433   .     A
C41    C54     1.425   .     A
C42    C37     1.427   1_554 A
C42    C51     1.425   1_554 A
C43    C44     1.389   .     A
C43    H13     1.075   .     S
C44    C45     1.397   .     A
C44    O13     1.397   .     S
C45    C46     1.389   .     A
C45    O14     1.396   .     S
C46    H14     1.075   .     S
C47    C48     1.389   .     A
C47    H15     1.075   .     S
C48    C49     1.397   .     A
C48    O15     1.397   .     S
C49    C50     1.389   .     A
C49    O16     1.396   .     S
C50    C38     1.423   1_556 A
C50    H16     1.075   1_556 S
C51    C42     1.425   1_556 A
C51    C52     1.388   1_556 A
C51    H17     1.075   .     S
C52    C51     1.388   1_554 A
C52    C53     1.360   .     A
C52    O17     1.382   1_554 S
C53    C54     1.388   .     A
C53    O18     1.382   .     S
C54    H18     1.075   .     S
O13    Zn5     1.799   .     S
O14    Zn5     1.798   .     S
O15    Zn3     1.799   .     S
O16    Zn3     1.798   .     S
H16    C50     1.075   1_554 S
O17    C52     1.382   1_556 S
O17    Cu12    1.810   1_556 S
O18    Cu12    1.810   .     S
C55    C56     1.429   .     A
C55    C60     1.427   .     A
C55    C65     1.423   .     A
C56    C57     1.427   1_545 A
C56    C68     1.423   .     A
C57    C56     1.427   1_565 A
C57    C58     1.429   1_554 A
C57    C64     1.423   1_554 A
C58    C57     1.429   1_556 A
C58    C59     1.427   1_556 A
C58    C61     1.423   .     A
C59    C58     1.427   1_554 A
C59    C60     1.433   1_565 A
C59    C72     1.425   1_554 A
C60    C59     1.433   1_545 A
C60    C69     1.425   .     A
C61    C62     1.389   .     A
C61    H19     1.075   .     S
C62    C63     1.397   .     A
C62    O19     1.397   .     S
C63    C64     1.389   .     A
C63    O20     1.396   .     S
C64    C57     1.423   1_556 A
C64    H20     1.075   1_556 S
C65    C66     1.389   .     A
C65    H21     1.075   .     S
C66    C67     1.397   .     A
C66    O21     1.397   .     S
C67    C68     1.389   .     A
C67    O22     1.396   .     S
C68    H22     1.075   .     S
C69    C70     1.388   .     A
C69    H23     1.075   .     S
C70    C71     1.360   1_545 A
C70    O23     1.382   .     S
C71    C70     1.360   1_565 A
C71    C72     1.388   1_554 A
C71    O24     1.382   1_554 S
C72    C59     1.425   1_556 A
C72    C71     1.388   1_556 A
C72    H24     1.075   .     S
O19    Zn12    1.799   .     S
O20    Zn12    1.798   .     S
H20    C64     1.075   1_554 S
O21    Zn7     1.799   .     S
O22    Zn7     1.798   .     S
O23    Cu10    1.810   .     S
O24    C71     1.382   1_556 S
O24    Cu10    1.810   1_566 S
C73    C74     1.429   1_554 A
C73    C78     1.427   1_455 A
C73    C83     1.423   1_554 A
C74    C73     1.429   1_556 A
C74    C75     1.427   1_556 A
C74    C86     1.423   .     A
C75    C74     1.427   1_554 A
C75    C76     1.433   1_455 A
C75    C82     1.425   1_554 A
C76    C75     1.433   1_655 A
C76    C77     1.427   .     A
C76    C79     1.425   .     A
C77    C78     1.429   .     A
C77    C90     1.423   .     A
C78    C73     1.427   1_655 A
C78    C87     1.423   .     A
C79    C80     1.388   .     A
C79    H25     1.075   .     S
C80    C81     1.360   1_655 A
C80    O25     1.382   .     S
C81    C80     1.360   1_455 A
C81    C82     1.388   1_554 A
C81    O26     1.382   1_554 S
C82    C75     1.425   1_556 A
C82    C81     1.388   1_556 A
C82    H26     1.075   .     S
C83    C73     1.423   1_556 A
C83    C84     1.389   .     A
C83    H27     1.075   1_556 S
C84    C85     1.397   .     A
C84    O27     1.396   .     S
C85    C86     1.389   .     A
C85    O28     1.397   .     S
C86    H28     1.075   .     S
C87    C88     1.389   .     A
C87    H29     1.075   .     S
C88    C89     1.397   .     A
C88    O29     1.396   .     S
C89    C90     1.389   .     A
C89    O30     1.397   .     S
C90    H30     1.075   .     S
O25    Cu11    1.810   1_655 S
O26    C81     1.382   1_556 S
O26    Cu11    1.810   1_556 S
H27    C83     1.075   1_554 S
O27    Zn10    1.798   .     S
O28    Zn10    1.799   .     S
O29    Zn8     1.798   .     S
O30    Zn8     1.799   .     S
C91    C92     1.429   .     A
C91    C96     1.427   .     A
C91    C101    1.423   .     A
C92    C93     1.427   .     A
C92    C104    1.423   .     A
C93    C94     1.433   .     A
C93    C100    1.425   .     A
C94    C95     1.427   1_554 A
C94    C97     1.425   1_554 A
C95    C94     1.427   1_556 A
C95    C96     1.429   1_556 A
C95    C108    1.423   .     A
C96    C95     1.429   1_554 A
C96    C105    1.423   1_554 A
C97    C94     1.425   1_556 A
C97    C98     1.388   1_556 A
C97    H31     1.075   .     S
C98    C97     1.388   1_554 A
C98    C99     1.360   .     A
C98    O31     1.382   1_554 S
C99    C100    1.388   .     A
C99    O32     1.382   .     S
C100   H32     1.075   .     S
C101   C102    1.389   .     A
C101   H33     1.075   .     S
C102   C103    1.397   .     A
C102   O33     1.396   .     S
C103   C104    1.389   .     A
C103   O34     1.397   .     S
C104   H34     1.075   .     S
C105   C96     1.423   1_556 A
C105   C106    1.389   .     A
C105   H35     1.075   1_556 S
C106   C107    1.397   .     A
C106   O35     1.396   .     S
C107   C108    1.389   .     A
C107   O36     1.397   .     S
C108   H36     1.075   .     S
O31    C98     1.382   1_556 S
O31    Cu12    1.810   1_556 S
O32    Cu12    1.810   .     S
O33    Zn9     1.798   .     S
O34    Zn9     1.799   .     S
H35    C105    1.075   1_554 S
O35    Zn11    1.798   .     S
O36    Zn11    1.799   .     S
C109   C110    1.429   .     A
C109   C114    1.427   .     A
C109   C119    1.423   .     A
C110   C111    1.427   .     A
C110   C122    1.423   .     A
C111   C112    1.433   .     A
C111   C118    1.425   .     A
C112   C113    1.427   .     A
C112   C115    1.425   .     A
C113   C114    1.429   .     A
C113   C126    1.423   .     A
C114   C123    1.423   .     A
C115   C116    1.388   .     A
C115   H37     1.075   .     S
C116   C117    1.360   .     A
C116   O37     1.382   .     S
C117   C118    1.388   .     A
C117   O38     1.382   .     S
C118   H38     1.075   .     S
C119   C120    1.389   1_455 A
C119   H39     1.075   1_455 S
C120   C119    1.389   1_655 A
C120   C121    1.397   1_655 A
C120   O39     1.396   .     S
C121   C120    1.397   1_455 A
C121   C122    1.389   .     A
C121   O40     1.397   1_455 S
C122   H40     1.075   .     S
C123   C124    1.389   .     A
C123   H41     1.075   .     S
C124   C125    1.397   .     A
C124   O41     1.396   .     S
C125   C126    1.389   .     A
C125   O42     1.397   .     S
C126   H42     1.075   .     S
O37    Cu13    1.810   .     S
O38    Cu13    1.810   .     S
H39    C119    1.075   1_655 S
O39    Zn13    1.798   .     S
O40    C121    1.397   1_655 S
O40    Zn13    1.799   .     S
O41    Zn18    1.798   .     S
O42    Zn18    1.799   .     S
C127   C128    1.429   .     A
C127   C132    1.427   .     A
C127   C137    1.423   .     A
C128   C129    1.427   .     A
C128   C140    1.423   .     A
C129   C130    1.429   .     A
C129   C136    1.423   .     A
C130   C131    1.427   .     A
C130   C133    1.423   .     A
C131   C132    1.433   .     A
C131   C144    1.425   .     A
C132   C141    1.425   .     A
C133   C134    1.389   .     A
C133   H43     1.075   .     S
C134   C135    1.397   .     A
C134   O43     1.397   .     S
C135   C136    1.389   .     A
C135   O44     1.396   .     S
C136   H44     1.075   .     S
C137   C138    1.389   .     A
C137   H45     1.075   .     S
C138   C139    1.397   .     A
C138   O45     1.397   .     S
C139   C140    1.389   .     A
C139   O46     1.396   .     S
C140   H46     1.075   .     S
C141   C142    1.388   .     A
C141   H47     1.075   .     S
C142   C143    1.360   .     A
C142   O47     1.382   .     S
C143   C144    1.388   .     A
C143   O48     1.382   .     S
C144   H48     1.075   .     S
O43    Zn14    1.799   .     S
O44    Zn14    1.798   .     S
O45    Zn16    1.799   .     S
O46    Zn16    1.798   .     S
O47    Cu14    1.810   .     S
O48    Cu14    1.810   .     S
C145   C146    1.429   .     A
C145   C150    1.427   .     A
C145   C155    1.423   .     A
C146   C147    1.427   .     A
C146   C158    1.423   1_565 A
C147   C148    1.429   .     A
C147   C154    1.423   .     A
C148   C149    1.427   .     A
C148   C151    1.423   .     A
C149   C150    1.433   .     A
C149   C162    1.425   .     A
C150   C159    1.425   .     A
C151   C152    1.389   .     A
C151   H49     1.075   .     S
C152   C153    1.397   .     A
C152   O49     1.397   .     S
C153   C154    1.389   .     A
C153   O50     1.396   .     S
C154   H50     1.075   1_565 S
C155   C156    1.389   1_565 A
C155   H51     1.075   .     S
C156   C155    1.389   1_545 A
C156   C157    1.397   .     A
C156   O51     1.397   .     S
C157   C158    1.389   .     A
C157   O52     1.396   .     S
C158   C146    1.423   1_545 A
C158   H52     1.075   .     S
C159   C160    1.388   .     A
C159   H53     1.075   .     S
C160   C161    1.360   .     A
C160   O53     1.382   .     S
C161   C162    1.388   .     A
C161   O54     1.382   .     S
C162   H54     1.075   .     S
O49    Zn17    1.799   .     S
O50    Zn17    1.798   .     S
H50    C154    1.075   1_545 S
O51    Zn15    1.799   .     S
O52    Zn15    1.798   .     S
O53    Cu15    1.810   .     S
O54    Cu15    1.810   .     S
C163   C164    1.429   .     A
C163   C168    1.426   .     A
C163   C173    1.423   .     A
C164   C165    1.427   .     A
C164   C176    1.423   .     A
C165   C166    1.429   .     A
C165   C172    1.423   .     A
C166   C167    1.427   .     A
C166   C169    1.423   .     A
C167   C168    1.433   .     A
C167   C180    1.425   .     A
C168   C177    1.425   .     A
C169   C170    1.389   .     A
C169   H55     1.075   .     S
C170   C171    1.397   .     A
C170   O55     1.397   .     S
C171   C172    1.389   .     A
C171   O56     1.396   .     S
C172   H56     1.075   .     S
C173   C174    1.389   .     A
C173   H57     1.075   .     S
C174   C175    1.397   .     A
C174   O57     1.397   .     S
C175   C176    1.389   .     A
C175   O58     1.396   .     S
C176   H58     1.075   .     S
C177   C178    1.388   .     A
C177   H59     1.075   .     S
C178   C179    1.360   .     A
C178   O59     1.382   .     S
C179   C180    1.388   .     A
C179   O60     1.382   .     S
C180   H60     1.075   .     S
O55    Zn24    1.799   .     S
O56    Zn24    1.798   .     S
O57    Zn19    1.799   .     S
O58    Zn19    1.798   .     S
O59    Cu13    1.810   .     S
O60    Cu13    1.810   .     S
C181   C182    1.429   .     A
C181   C186    1.427   .     A
C181   C191    1.423   1_565 A
C182   C183    1.427   .     A
C182   C194    1.423   .     A
C183   C184    1.433   .     A
C183   C190    1.425   .     A
C184   C185    1.427   .     A
C184   C187    1.425   .     A
C185   C186    1.429   .     A
C185   C198    1.423   .     A
C186   C195    1.423   .     A
C187   C188    1.388   .     A
C187   H61     1.075   .     S
C188   C189    1.360   .     A
C188   O61     1.382   .     S
C189   C190    1.388   .     A
C189   O62     1.382   .     S
C190   H62     1.075   .     S
C191   C181    1.423   1_545 A
C191   C192    1.389   .     A
C191   H63     1.075   .     S
C192   C193    1.397   .     A
C192   O63     1.396   .     S
C193   C194    1.389   1_545 A
C193   O64     1.397   .     S
C194   C193    1.389   1_565 A
C194   H64     1.075   .     S
C195   C196    1.389   .     A
C195   H65     1.075   1_565 S
C196   C197    1.397   .     A
C196   O65     1.396   .     S
C197   C198    1.389   .     A
C197   O66     1.397   .     S
C198   H66     1.075   .     S
O61    Cu14    1.810   .     S
O62    Cu14    1.810   .     S
O63    Zn22    1.798   .     S
O64    Zn22    1.799   .     S
H65    C195    1.075   1_545 S
O65    Zn20    1.798   .     S
O66    Zn20    1.799   .     S
C199   C200    1.429   .     A
C199   C204    1.427   .     A
C199   C209    1.423   .     A
C200   C201    1.427   .     A
C200   C212    1.423   .     A
C201   C202    1.433   .     A
C201   C208    1.425   .     A
C202   C203    1.427   .     A
C202   C205    1.425   .     A
C203   C204    1.429   .     A
C203   C216    1.423   .     A
C204   C213    1.423   .     A
C205   C206    1.388   .     A
C205   H67     1.075   .     S
C206   C207    1.360   .     A
C206   O67     1.382   .     S
C207   C208    1.388   .     A
C207   O68     1.382   .     S
C208   H68     1.075   .     S
C209   C210    1.389   .     A
C209   H69     1.075   .     S
C210   C211    1.397   .     A
C210   O69     1.396   .     S
C211   C212    1.389   .     A
C211   O70     1.397   .     S
C212   H70     1.075   .     S
C213   C214    1.389   1_455 A
C213   H71     1.075   1_455 S
C214   C213    1.389   1_655 A
C214   C215    1.397   1_655 A
C214   O71     1.396   .     S
C215   C214    1.397   1_455 A
C215   C216    1.389   .     A
C215   O72     1.397   1_455 S
C216   H72     1.075   .     S
O67    Cu15    1.810   .     S
O68    Cu15    1.810   .     S
O69    Zn21    1.798   .     S
O70    Zn21    1.799   .     S
H71    C213    1.075   1_655 S
O71    Zn23    1.798   .     S
O72    C215    1.397   1_655 S
O72    Zn23    1.799   .     S
C217   C218    1.429   .     A
C217   C222    1.427   .     A
C217   C227    1.423   .     A
C218   C219    1.427   .     A
C218   C230    1.423   .     A
C219   C220    1.433   .     A
C219   C226    1.425   .     A
C220   C221    1.427   .     A
C220   C223    1.425   .     A
C221   C222    1.429   .     A
C221   C234    1.423   .     A
C222   C231    1.423   .     A
C223   C224    1.388   .     A
C223   H73     1.075   .     S
C224   C225    1.360   .     A
C224   O73     1.382   .     S
C225   C226    1.388   .     A
C225   O74     1.382   .     S
C226   H74     1.075   .     S
C227   C228    1.389   .     A
C227   H75     1.075   .     S
C228   C229    1.397   .     A
C228   O75     1.396   .     S
C229   C230    1.389   .     A
C229   O76     1.397   .     S
C230   H76     1.075   .     S
C231   C232    1.389   .     A
C231   H77     1.075   .     S
C232   C233    1.397   .     A
C232   O77     1.396   .     S
C233   C234    1.389   .     A
C233   O78     1.397   .     S
C234   H78     1.075   .     S
O73    Cu16    1.810   .     S
O74    Cu16    1.810   .     S
O75    Zn25    1.798   .     S
O76    Zn25    1.799   .     S
O77    Zn30    1.798   .     S
O78    Zn30    1.799   .     S
C235   C236    1.429   .     A
C235   C240    1.427   .     A
C235   C245    1.423   .     A
C236   C237    1.427   .     A
C236   C248    1.423   .     A
C237   C238    1.429   .     A
C237   C244    1.423   .     A
C238   C239    1.427   .     A
C238   C241    1.423   .     A
C239   C240    1.433   .     A
C239   C252    1.425   .     A
C240   C249    1.425   .     A
C241   C242    1.389   .     A
C241   H79     1.075   .     S
C242   C243    1.397   .     A
C242   O79     1.397   .     S
C243   C244    1.389   .     A
C243   O80     1.396   .     S
C244   H80     1.075   .     S
C245   C246    1.389   .     A
C245   H81     1.075   .     S
C246   C247    1.397   1_545 A
C246   O81     1.397   1_545 S
C247   C246    1.397   1_565 A
C247   C248    1.389   1_565 A
C247   O82     1.396   .     S
C248   C247    1.389   1_545 A
C248   H82     1.075   1_545 S
C249   C250    1.388   .     A
C249   H83     1.075   .     S
C250   C251    1.360   .     A
C250   O83     1.382   .     S
C251   C252    1.388   .     A
C251   O84     1.382   .     S
C252   H84     1.075   .     S
O79    Zn26    1.799   .     S
O80    Zn26    1.798   .     S
O81    C246    1.397   1_565 S
O81    Zn28    1.799   .     S
O82    Zn28    1.798   .     S
H82    C248    1.075   1_565 S
O83    Cu17    1.810   .     S
O84    Cu17    1.810   .     S
C253   C254    1.429   .     A
C253   C258    1.427   .     A
C253   C263    1.423   .     A
C254   C255    1.427   .     A
C254   C266    1.423   .     A
C255   C256    1.429   .     A
C255   C262    1.423   1_655 A
C256   C257    1.427   .     A
C256   C259    1.423   .     A
C257   C258    1.433   .     A
C257   C270    1.425   .     A
C258   C267    1.425   .     A
C259   C260    1.389   1_655 A
C259   H85     1.075   .     S
C260   C259    1.389   1_455 A
C260   C261    1.397   .     A
C260   O85     1.397   .     S
C261   C262    1.389   .     A
C261   O86     1.396   .     S
C262   C255    1.423   1_455 A
C262   H86     1.075   .     S
C263   C264    1.389   .     A
C263   H87     1.075   .     S
C264   C265    1.397   .     A
C264   O87     1.397   .     S
C265   C266    1.389   .     A
C265   O88     1.396   .     S
C266   H88     1.075   1_655 S
C267   C268    1.388   .     A
C267   H89     1.075   .     S
C268   C269    1.360   .     A
C268   O89     1.382   .     S
C269   C270    1.388   .     A
C269   O90     1.382   .     S
C270   H90     1.075   .     S
O85    Zn29    1.799   .     S
O86    Zn29    1.798   .     S
O87    Zn27    1.799   .     S
O88    Zn27    1.798   .     S
H88    C266    1.075   1_455 S
O89    Cu18    1.810   .     S
O90    Cu18    1.810   .     S
C271   C272    1.429   .     A
C271   C276    1.426   .     A
C271   C281    1.423   .     A
C272   C273    1.427   .     A
C272   C284    1.423   1_655 A
C273   C274    1.429   .     A
C273   C280    1.423   .     A
C274   C275    1.427   .     A
C274   C277    1.423   .     A
C275   C276    1.433   .     A
C275   C288    1.425   .     A
C276   C285    1.425   .     A
C277   C278    1.389   .     A
C277   H91     1.075   .     S
C278   C279    1.397   .     A
C278   O91     1.397   .     S
C279   C280    1.389   .     A
C279   O92     1.396   .     S
C280   H92     1.075   1_655 S
C281   C282    1.389   1_655 A
C281   H93     1.075   .     S
C282   C281    1.389   1_455 A
C282   C283    1.397   .     A
C282   O93     1.397   .     S
C283   C284    1.389   .     A
C283   O94     1.396   .     S
C284   C272    1.423   1_455 A
C284   H94     1.075   .     S
C285   C286    1.388   .     A
C285   H95     1.075   .     S
C286   C287    1.360   .     A
C286   O95     1.382   .     S
C287   C288    1.388   .     A
C287   O96     1.382   .     S
C288   H96     1.075   .     S
O91    Zn36    1.799   .     S
O92    Zn36    1.798   .     S
H92    C280    1.075   1_455 S
O93    Zn31    1.799   .     S
O94    Zn31    1.798   .     S
O95    Cu16    1.810   .     S
O96    Cu16    1.810   .     S
C289   C290    1.429   .     A
C289   C294    1.427   .     A
C289   C299    1.423   .     A
C290   C291    1.427   .     A
C290   C302    1.423   .     A
C291   C292    1.433   .     A
C291   C298    1.425   .     A
C292   C293    1.427   .     A
C292   C295    1.425   .     A
C293   C294    1.429   .     A
C293   C306    1.423   .     A
C294   C303    1.423   .     A
C295   C296    1.388   .     A
C295   H97     1.075   .     S
C296   C297    1.360   .     A
C296   O97     1.382   .     S
C297   C298    1.388   .     A
C297   O98     1.382   .     S
C298   H98     1.075   .     S
C299   C300    1.389   .     A
C299   H99     1.075   .     S
C300   C301    1.397   .     A
C300   O99     1.396   .     S
C301   C302    1.389   .     A
C301   O100    1.397   .     S
C302   H100    1.075   .     S
C303   C304    1.389   .     A
C303   H101    1.075   .     S
C304   C305    1.397   .     A
C304   O101    1.396   .     S
C305   C306    1.389   .     A
C305   O102    1.397   .     S
C306   H102    1.075   .     S
O97    Cu17    1.810   .     S
O98    Cu17    1.810   .     S
O99    Zn34    1.798   .     S
O100   Zn34    1.799   .     S
O101   Zn32    1.798   .     S
O102   Zn32    1.799   .     S
C307   C308    1.429   .     A
C307   C312    1.427   .     A
C307   C317    1.423   .     A
C308   C309    1.427   .     A
C308   C320    1.423   .     A
C309   C310    1.433   .     A
C309   C316    1.425   .     A
C310   C311    1.427   .     A
C310   C313    1.425   .     A
C311   C312    1.429   .     A
C311   C324    1.423   .     A
C312   C321    1.423   .     A
C313   C314    1.388   .     A
C313   H103    1.075   .     S
C314   C315    1.360   .     A
C314   O103    1.382   .     S
C315   C316    1.388   .     A
C315   O104    1.382   .     S
C316   H104    1.075   .     S
C317   C318    1.389   1_545 A
C317   H105    1.075   1_545 S
C318   C317    1.389   1_565 A
C318   C319    1.397   1_565 A
C318   O105    1.396   .     S
C319   C318    1.397   1_545 A
C319   C320    1.389   .     A
C319   O106    1.397   1_545 S
C320   H106    1.075   .     S
C321   C322    1.389   .     A
C321   H107    1.075   .     S
C322   C323    1.397   .     A
C322   O107    1.396   .     S
C323   C324    1.389   .     A
C323   O108    1.397   .     S
C324   H108    1.075   .     S
O103   Cu18    1.810   .     S
O104   Cu18    1.810   .     S
H105   C317    1.075   1_565 S
O105   Zn33    1.798   .     S
O106   C319    1.397   1_565 S
O106   Zn33    1.799   .     S
O107   Zn35    1.798   .     S
O108   Zn35    1.799   .     S
C325   C326    1.430   .     A
C325   C330    1.429   .     A
C325   C335    1.424   .     A
C326   C327    1.427   .     A
C326   C338    1.424   .     A
C327   C328    1.433   .     A
C327   C334    1.426   .     A
C328   C329    1.427   .     A
C328   C331    1.426   .     A
C329   C330    1.431   .     A
C329   C342    1.424   .     A
C330   C339    1.424   .     A
C331   C332    1.388   .     A
C331   H109    1.074   .     S
C332   C333    1.359   .     A
C332   O109    1.382   .     S
C333   C334    1.388   .     A
C333   O110    1.382   .     S
C334   H110    1.074   .     S
C335   C336    1.389   .     A
C335   H111    1.074   .     S
C336   C337    1.396   .     A
C336   O111    1.396   .     S
C337   C338    1.389   .     A
C337   O112    1.397   .     S
C338   H112    1.074   .     S
C339   C340    1.389   .     A
C339   H113    1.074   .     S
C340   C341    1.396   .     A
C340   O113    1.396   .     S
C341   C342    1.389   .     A
C341   O114    1.397   .     S
C342   H114    1.074   .     S
O109   Cu1     1.810   .     S
O110   Cu1     1.810   .     S
O111   Zn6     1.798   .     S
O112   Zn6     1.798   .     S
O113   Zn9     1.798   .     S
O114   Zn9     1.798   .     S
C343   C344    1.431   .     A
C343   C348    1.429   .     A
C343   C353    1.424   .     A
C344   C345    1.427   .     A
C344   C356    1.424   .     A
C345   C346    1.433   .     A
C345   C352    1.426   .     A
C346   C347    1.427   .     A
C346   C349    1.426   .     A
C347   C348    1.431   .     A
C347   C360    1.424   .     A
C348   C357    1.424   .     A
C349   C350    1.388   .     A
C349   H115    1.074   .     S
C350   C351    1.359   .     A
C350   O115    1.382   .     S
C351   C352    1.388   .     A
C351   O116    1.382   .     S
C352   H116    1.074   .     S
C353   C354    1.389   .     A
C353   H117    1.074   .     S
C354   C355    1.396   .     A
C354   O117    1.396   .     S
C355   C356    1.389   .     A
C355   O118    1.397   .     S
C356   H118    1.074   .     S
C357   C358    1.389   .     A
C357   H119    1.074   .     S
C358   C359    1.396   .     A
C358   O119    1.396   .     S
C359   C360    1.389   .     A
C359   O120    1.397   .     S
C360   H120    1.074   .     S
O115   Cu2     1.810   .     S
O116   Cu2     1.810   .     S
O117   Zn4     1.798   .     S
O118   Zn4     1.798   .     S
O119   Zn7     1.798   .     S
O120   Zn7     1.798   .     S
C361   C362    1.433   .     A
C361   C366    1.427   .     A
C361   C371    1.426   .     A
C362   C363    1.427   .     A
C362   C374    1.426   .     A
C363   C364    1.430   .     A
C363   C370    1.424   .     A
C364   C365    1.429   .     A
C364   C367    1.424   .     A
C365   C366    1.431   .     A
C365   C378    1.424   .     A
C366   C375    1.424   .     A
C367   C368    1.389   .     A
C367   H121    1.074   .     S
C368   C369    1.396   .     A
C368   O121    1.396   .     S
C369   C370    1.389   .     A
C369   O122    1.397   .     S
C370   H122    1.074   .     S
C371   C372    1.388   .     A
C371   H123    1.074   .     S
C372   C373    1.359   .     A
C372   O123    1.382   .     S
C373   C374    1.388   .     A
C373   O124    1.382   .     S
C374   H124    1.074   .     S
C375   C376    1.389   .     A
C375   H125    1.074   .     S
C376   C377    1.396   .     A
C376   O125    1.397   .     S
C377   C378    1.389   .     A
C377   O126    1.396   .     S
C378   H126    1.074   .     S
O121   Zn8     1.798   .     S
O122   Zn8     1.798   .     S
O123   Cu3     1.810   .     S
O124   Cu3     1.810   .     S
O125   Zn5     1.798   .     S
O126   Zn5     1.798   .     S
C379   C380    1.433   .     A
C379   C384    1.427   .     A
C379   C389    1.426   .     A
C380   C381    1.427   .     A
C380   C392    1.426   .     A
C381   C382    1.431   .     A
C381   C388    1.424   .     A
C382   C383    1.429   .     A
C382   C385    1.424   .     A
C383   C384    1.430   .     A
C383   C396    1.424   .     A
C384   C393    1.424   .     A
C385   C386    1.389   .     A
C385   H127    1.074   .     S
C386   C387    1.396   .     A
C386   O127    1.396   .     S
C387   C388    1.389   .     A
C387   O128    1.397   .     S
C388   H128    1.074   .     S
C389   C390    1.388   .     A
C389   H129    1.074   .     S
C390   C391    1.359   .     A
C390   O129    1.382   .     S
C391   C392    1.388   .     A
C391   O130    1.382   .     S
C392   H130    1.074   .     S
C393   C394    1.389   .     A
C393   H131    1.074   .     S
C394   C395    1.396   .     A
C394   O131    1.397   .     S
C395   C396    1.389   .     A
C395   O132    1.396   .     S
C396   H132    1.074   .     S
O127   Zn11    1.798   .     S
O128   Zn11    1.798   .     S
O129   Cu4     1.810   .     S
O130   Cu4     1.810   .     S
O131   Zn2     1.798   .     S
O132   Zn2     1.798   .     S
C397   C398    1.431   .     A
C397   C402    1.429   .     A
C397   C407    1.424   .     A
C398   C399    1.427   .     A
C398   C410    1.424   .     A
C399   C400    1.433   .     A
C399   C406    1.426   .     A
C400   C401    1.427   .     A
C400   C403    1.426   .     A
C401   C402    1.430   .     A
C401   C414    1.424   .     A
C402   C411    1.424   .     A
C403   C404    1.388   .     A
C403   H133    1.074   .     S
C404   C405    1.359   .     A
C404   O133    1.382   .     S
C405   C406    1.388   .     A
C405   O134    1.382   .     S
C406   H134    1.074   .     S
C407   C408    1.389   .     A
C407   H135    1.074   .     S
C408   C409    1.396   .     A
C408   O135    1.396   .     S
C409   C410    1.389   .     A
C409   O136    1.397   .     S
C410   H136    1.074   .     S
C411   C412    1.389   .     A
C411   H137    1.074   .     S
C412   C413    1.396   .     A
C412   O137    1.396   .     S
C413   C414    1.389   .     A
C413   O138    1.397   .     S
C414   H138    1.074   .     S
O133   Cu5     1.810   .     S
O134   Cu5     1.810   .     S
O135   Zn3     1.798   .     S
O136   Zn3     1.798   .     S
O137   Zn12    1.798   .     S
O138   Zn12    1.798   .     S
C415   C416    1.431   .     A
C415   C420    1.429   .     A
C415   C425    1.424   .     A
C416   C417    1.427   .     A
C416   C428    1.424   .     A
C417   C418    1.433   .     A
C417   C424    1.426   .     A
C418   C419    1.427   .     A
C418   C421    1.426   .     A
C419   C420    1.431   .     A
C419   C432    1.424   .     A
C420   C429    1.424   .     A
C421   C422    1.388   .     A
C421   H139    1.074   .     S
C422   C423    1.359   .     A
C422   O139    1.382   .     S
C423   C424    1.388   .     A
C423   O140    1.382   .     S
C424   H140    1.074   .     S
C425   C426    1.389   .     A
C425   H141    1.074   .     S
C426   C427    1.396   .     A
C426   O141    1.396   .     S
C427   C428    1.389   .     A
C427   O142    1.397   .     S
C428   H142    1.074   .     S
C429   C430    1.389   .     A
C429   H143    1.074   .     S
C430   C431    1.396   .     A
C430   O143    1.396   .     S
C431   C432    1.389   .     A
C431   O144    1.397   .     S
C432   H144    1.074   .     S
O139   Cu6     1.810   .     S
O140   Cu6     1.810   .     S
O141   Zn1     1.798   .     S
O142   Zn1     1.798   .     S
O143   Zn10    1.798   .     S
O144   Zn10    1.798   .     S
C433   C434    1.430   .     A
C433   C438    1.429   .     A
C433   C443    1.424   .     A
C434   C435    1.427   .     A
C434   C446    1.424   .     A
C435   C436    1.433   .     A
C435   C442    1.426   .     A
C436   C437    1.427   .     A
C436   C439    1.426   .     A
C437   C438    1.431   .     A
C437   C450    1.424   .     A
C438   C447    1.424   .     A
C439   C440    1.388   .     A
C439   H145    1.074   .     S
C440   C441    1.359   .     A
C440   O145    1.382   .     S
C441   C442    1.388   .     A
C441   O146    1.382   .     S
C442   H146    1.074   .     S
C443   C444    1.389   .     A
C443   H147    1.074   .     S
C444   C445    1.396   .     A
C444   O147    1.396   .     S
C445   C446    1.389   .     A
C445   O148    1.397   .     S
C446   H148    1.074   .     S
C447   C448    1.389   .     A
C447   H149    1.074   .     S
C448   C449    1.396   .     A
C448   O149    1.396   .     S
C449   C450    1.389   .     A
C449   O150    1.397   .     S
C450   H150    1.074   .     S
O145   Cu7     1.810   .     S
O146   Cu7     1.810   .     S
O147   Zn18    1.798   .     S
O148   Zn18    1.798   .     S
O149   Zn21    1.798   .     S
O150   Zn21    1.798   .     S
C451   C452    1.431   .     A
C451   C456    1.429   .     A
C451   C461    1.424   .     A
C452   C453    1.427   .     A
C452   C464    1.424   .     A
C453   C454    1.433   .     A
C453   C460    1.426   .     A
C454   C455    1.427   .     A
C454   C457    1.426   .     A
C455   C456    1.431   .     A
C455   C468    1.424   .     A
C456   C465    1.424   .     A
C457   C458    1.388   .     A
C457   H151    1.074   .     S
C458   C459    1.359   .     A
C458   O151    1.382   .     S
C459   C460    1.388   .     A
C459   O152    1.382   .     S
C460   H152    1.074   .     S
C461   C462    1.389   .     A
C461   H153    1.074   .     S
C462   C463    1.396   .     A
C462   O153    1.396   .     S
C463   C464    1.389   .     A
C463   O154    1.397   .     S
C464   H154    1.074   .     S
C465   C466    1.389   .     A
C465   H155    1.074   .     S
C466   C467    1.396   .     A
C466   O155    1.396   .     S
C467   C468    1.389   .     A
C467   O156    1.397   .     S
C468   H156    1.074   .     S
O151   Cu8     1.810   .     S
O152   Cu8     1.810   .     S
O153   Zn16    1.798   .     S
O154   Zn16    1.798   .     S
O155   Zn19    1.798   .     S
O156   Zn19    1.798   .     S
C469   C470    1.433   .     A
C469   C474    1.427   .     A
C469   C479    1.426   .     A
C470   C471    1.427   .     A
C470   C482    1.426   .     A
C471   C472    1.430   .     A
C471   C478    1.424   .     A
C472   C473    1.429   .     A
C472   C475    1.424   .     A
C473   C474    1.431   .     A
C473   C486    1.424   .     A
C474   C483    1.424   .     A
C475   C476    1.389   .     A
C475   H157    1.074   .     S
C476   C477    1.396   .     A
C476   O157    1.396   .     S
C477   C478    1.389   .     A
C477   O158    1.397   .     S
C478   H158    1.074   .     S
C479   C480    1.388   .     A
C479   H159    1.074   .     S
C480   C481    1.359   .     A
C480   O159    1.382   .     S
C481   C482    1.388   .     A
C481   O160    1.382   .     S
C482   H160    1.074   .     S
C483   C484    1.389   .     A
C483   H161    1.074   .     S
C484   C485    1.396   .     A
C484   O161    1.397   .     S
C485   C486    1.389   .     A
C485   O162    1.396   .     S
C486   H162    1.074   .     S
O157   Zn20    1.798   .     S
O158   Zn20    1.798   .     S
O159   Cu9     1.810   1_565 S
O160   Cu9     1.810   1_565 S
O161   Zn17    1.798   .     S
O162   Zn17    1.798   .     S
C487   C488    1.433   .     A
C487   C492    1.427   .     A
C487   C497    1.426   .     A
C488   C489    1.427   .     A
C488   C500    1.426   .     A
C489   C490    1.431   .     A
C489   C496    1.424   .     A
C490   C491    1.429   .     A
C490   C493    1.424   .     A
C491   C492    1.430   .     A
C491   C504    1.424   .     A
C492   C501    1.424   .     A
C493   C494    1.389   .     A
C493   H163    1.074   .     S
C494   C495    1.396   .     A
C494   O163    1.396   .     S
C495   C496    1.389   .     A
C495   O164    1.397   .     S
C496   H164    1.074   .     S
C497   C498    1.388   .     A
C497   H165    1.074   .     S
C498   C499    1.359   .     A
C498   O165    1.382   .     S
C499   C500    1.388   .     A
C499   O166    1.382   .     S
C500   H166    1.074   .     S
C501   C502    1.389   .     A
C501   H167    1.074   .     S
C502   C503    1.396   .     A
C502   O167    1.397   .     S
C503   C504    1.389   .     A
C503   O168    1.396   .     S
C504   H168    1.074   .     S
O163   Zn23    1.798   .     S
O164   Zn23    1.798   .     S
O165   Cu3     1.810   .     S
O166   Cu3     1.810   .     S
O167   Zn14    1.798   .     S
O168   Zn14    1.798   .     S
C505   C506    1.431   .     A
C505   C510    1.429   .     A
C505   C515    1.424   .     A
C506   C507    1.427   .     A
C506   C518    1.424   .     A
C507   C508    1.433   .     A
C507   C514    1.426   .     A
C508   C509    1.427   .     A
C508   C511    1.426   .     A
C509   C510    1.430   .     A
C509   C522    1.424   .     A
C510   C519    1.424   .     A
C511   C512    1.388   .     A
C511   H169    1.074   .     S
C512   C513    1.359   .     A
C512   O169    1.382   .     S
C513   C514    1.388   .     A
C513   O170    1.382   .     S
C514   H170    1.074   .     S
C515   C516    1.389   .     A
C515   H171    1.074   .     S
C516   C517    1.396   .     A
C516   O171    1.396   .     S
C517   C518    1.389   .     A
C517   O172    1.397   .     S
C518   H172    1.074   .     S
C519   C520    1.389   .     A
C519   H173    1.074   .     S
C520   C521    1.396   .     A
C520   O173    1.396   .     S
C521   C522    1.389   .     A
C521   O174    1.397   .     S
C522   H174    1.074   .     S
O169   Cu1     1.810   .     S
O170   Cu1     1.810   .     S
O171   Zn15    1.798   .     S
O172   Zn15    1.798   .     S
O173   Zn24    1.798   .     S
O174   Zn24    1.798   .     S
C523   C524    1.431   .     A
C523   C528    1.429   .     A
C523   C533    1.424   .     A
C524   C525    1.427   .     A
C524   C536    1.424   .     A
C525   C526    1.433   .     A
C525   C532    1.426   .     A
C526   C527    1.427   .     A
C526   C529    1.426   .     A
C527   C528    1.431   .     A
C527   C540    1.424   .     A
C528   C537    1.424   .     A
C529   C530    1.388   .     A
C529   H175    1.074   .     S
C530   C531    1.359   .     A
C530   O175    1.382   .     S
C531   C532    1.388   .     A
C531   O176    1.382   .     S
C532   H176    1.074   .     S
C533   C534    1.389   .     A
C533   H177    1.074   .     S
C534   C535    1.396   .     A
C534   O177    1.396   .     S
C535   C536    1.389   .     A
C535   O178    1.397   .     S
C536   H178    1.074   .     S
C537   C538    1.389   .     A
C537   H179    1.074   .     S
C538   C539    1.396   .     A
C538   O179    1.396   .     S
C539   C540    1.389   .     A
C539   O180    1.396   .     S
C540   H180    1.074   .     S
O175   Cu2     1.810   .     S
O176   Cu2     1.810   .     S
O177   Zn13    1.798   .     S
O178   Zn13    1.798   .     S
O179   Zn22    1.798   .     S
O180   Zn22    1.798   .     S
C541   C542    1.430   .     A
C541   C546    1.429   .     A
C541   C551    1.424   .     A
C542   C543    1.427   .     A
C542   C554    1.424   .     A
C543   C544    1.433   .     A
C543   C550    1.426   .     A
C544   C545    1.427   .     A
C544   C547    1.426   .     A
C545   C546    1.431   .     A
C545   C558    1.424   .     A
C546   C555    1.424   .     A
C547   C548    1.388   .     A
C547   H181    1.074   .     S
C548   C549    1.359   .     A
C548   O181    1.382   .     S
C549   C550    1.388   .     A
C549   O182    1.382   .     S
C550   H182    1.074   .     S
C551   C552    1.389   .     A
C551   H183    1.074   .     S
C552   C553    1.396   .     A
C552   O183    1.396   .     S
C553   C554    1.389   .     A
C553   O184    1.397   .     S
C554   H184    1.074   .     S
C555   C556    1.389   .     A
C555   H185    1.074   .     S
C556   C557    1.396   .     A
C556   O185    1.396   .     S
C557   C558    1.389   .     A
C557   O186    1.397   .     S
C558   H186    1.074   .     S
O181   Cu5     1.810   .     S
O182   Cu5     1.810   .     S
O183   Zn30    1.798   .     S
O184   Zn30    1.798   .     S
O185   Zn33    1.798   .     S
O186   Zn33    1.798   .     S
C559   C560    1.431   .     A
C559   C564    1.429   .     A
C559   C569    1.424   .     A
C560   C561    1.427   .     A
C560   C572    1.424   .     A
C561   C562    1.433   .     A
C561   C568    1.426   .     A
C562   C563    1.427   .     A
C562   C565    1.426   .     A
C563   C564    1.431   .     A
C563   C576    1.424   .     A
C564   C573    1.424   .     A
C565   C566    1.388   .     A
C565   H187    1.074   .     S
C566   C567    1.359   .     A
C566   O187    1.382   .     S
C567   C568    1.388   .     A
C567   O188    1.382   .     S
C568   H188    1.074   .     S
C569   C570    1.389   .     A
C569   H189    1.074   .     S
C570   C571    1.396   .     A
C570   O189    1.396   .     S
C571   C572    1.389   .     A
C571   O190    1.396   .     S
C572   H190    1.074   .     S
C573   C574    1.389   .     A
C573   H191    1.074   .     S
C574   C575    1.396   .     A
C574   O191    1.396   .     S
C575   C576    1.388   .     A
C575   O192    1.396   .     S
C576   H192    1.074   .     S
O187   Cu6     1.810   .     S
O188   Cu6     1.810   .     S
O189   Zn28    1.798   .     S
O190   Zn28    1.798   .     S
O191   Zn31    1.798   .     S
O192   Zn31    1.798   .     S
C577   C578    1.433   .     A
C577   C582    1.427   .     A
C577   C587    1.426   .     A
C578   C579    1.427   .     A
C578   C590    1.426   .     A
C579   C580    1.430   .     A
C579   C586    1.424   .     A
C580   C581    1.429   .     A
C580   C583    1.424   .     A
C581   C582    1.431   .     A
C581   C594    1.424   .     A
C582   C591    1.424   .     A
C583   C584    1.389   .     A
C583   H193    1.074   .     S
C584   C585    1.396   .     A
C584   O193    1.396   .     S
C585   C586    1.389   .     A
C585   O194    1.397   .     S
C586   H194    1.074   .     S
C587   C588    1.388   .     A
C587   H195    1.074   .     S
C588   C589    1.359   .     A
C588   O195    1.382   .     S
C589   C590    1.388   .     A
C589   O196    1.382   .     S
C590   H196    1.074   .     S
C591   C592    1.389   .     A
C591   H197    1.074   .     S
C592   C593    1.396   .     A
C592   O197    1.397   .     S
C593   C594    1.389   .     A
C593   O198    1.396   .     S
C594   H198    1.074   .     S
O193   Zn32    1.798   .     S
O194   Zn32    1.798   .     S
O195   Cu4     1.810   .     S
O196   Cu4     1.810   .     S
O197   Zn29    1.798   .     S
O198   Zn29    1.798   .     S
C595   C596    1.433   .     A
C595   C600    1.427   .     A
C595   C605    1.426   .     A
C596   C597    1.427   .     A
C596   C608    1.426   .     A
C597   C598    1.431   .     A
C597   C604    1.424   .     A
C598   C599    1.429   .     A
C598   C601    1.424   .     A
C599   C600    1.430   .     A
C599   C612    1.424   .     A
C600   C609    1.424   .     A
C601   C602    1.389   .     A
C601   H199    1.074   .     S
C602   C603    1.396   .     A
C602   O199    1.396   .     S
C603   C604    1.389   .     A
C603   O200    1.397   .     S
C604   H200    1.074   .     S
C605   C606    1.388   .     A
C605   H201    1.074   .     S
C606   C607    1.359   .     A
C606   O201    1.382   .     S
C607   C608    1.388   .     A
C607   O202    1.382   .     S
C608   H202    1.074   .     S
C609   C610    1.389   .     A
C609   H203    1.074   .     S
C610   C611    1.396   .     A
C610   O203    1.397   .     S
C611   C612    1.389   .     A
C611   O204    1.396   .     S
C612   H204    1.074   .     S
O199   Zn35    1.798   .     S
O200   Zn35    1.798   .     S
O201   Cu9     1.810   .     S
O202   Cu9     1.810   .     S
O203   Zn26    1.798   .     S
O204   Zn26    1.798   .     S
C613   C614    1.431   .     A
C613   C618    1.429   .     A
C613   C623    1.424   .     A
C614   C615    1.427   .     A
C614   C626    1.424   .     A
C615   C616    1.433   .     A
C615   C622    1.426   .     A
C616   C617    1.427   .     A
C616   C619    1.426   .     A
C617   C618    1.430   .     A
C617   C630    1.424   .     A
C618   C627    1.424   .     A
C619   C620    1.388   .     A
C619   H205    1.074   .     S
C620   C621    1.359   .     A
C620   O205    1.382   .     S
C621   C622    1.388   .     A
C621   O206    1.382   .     S
C622   H206    1.074   .     S
C623   C624    1.389   .     A
C623   H207    1.074   .     S
C624   C625    1.396   .     A
C624   O207    1.396   .     S
C625   C626    1.389   .     A
C625   O208    1.397   .     S
C626   H208    1.074   .     S
C627   C628    1.389   .     A
C627   H209    1.074   .     S
C628   C629    1.396   .     A
C628   O209    1.396   .     S
C629   C630    1.389   .     A
C629   O210    1.397   .     S
C630   H210    1.074   .     S
O205   Cu7     1.810   1_655 S
O206   Cu7     1.810   1_655 S
O207   Zn27    1.798   .     S
O208   Zn27    1.798   .     S
O209   Zn36    1.798   .     S
O210   Zn36    1.798   .     S
C631   C632    1.431   .     A
C631   C636    1.429   .     A
C631   C641    1.424   .     A
C632   C633    1.427   .     A
C632   C644    1.424   .     A
C633   C634    1.433   .     A
C633   C640    1.426   .     A
C634   C635    1.427   .     A
C634   C637    1.426   .     A
C635   C636    1.431   .     A
C635   C648    1.424   .     A
C636   C645    1.424   .     A
C637   C638    1.388   .     A
C637   H211    1.074   .     S
C638   C639    1.359   .     A
C638   O211    1.382   .     S
C639   C640    1.388   .     A
C639   O212    1.382   .     S
C640   H212    1.074   .     S
C641   C642    1.389   .     A
C641   H213    1.074   .     S
C642   C643    1.396   .     A
C642   O213    1.396   .     S
C643   C644    1.389   .     A
C643   O214    1.397   .     S
C644   H214    1.074   .     S
C645   C646    1.389   .     A
C645   H215    1.074   .     S
C646   C647    1.396   .     A
C646   O215    1.396   .     S
C647   C648    1.389   .     A
C647   O216    1.397   .     S
C648   H216    1.074   .     S
O211   Cu8     1.810   .     S
O212   Cu8     1.810   .     S
O213   Zn25    1.798   .     S
O214   Zn25    1.798   .     S
O215   Zn34    1.798   .     S
O216   Zn34    1.798   .     S
Cu7    O206    1.810   1_455 S
Cu7    O205    1.810   1_455 S
Cu9    O159    1.810   1_545 S
Cu9    O160    1.810   1_545 S
Cu10   O2      1.810   1_544 S
Cu10   O24     1.810   1_544 S
Cu11   O11     1.810   1_455 S
Cu11   O25     1.810   1_455 S
Cu11   O26     1.810   1_554 S
Cu11   O12     1.810   1_554 S
Cu12   O17     1.810   1_554 S
Cu12   O31     1.810   1_554 S
