data_nta-B_O-Zntet
_audit_creation_date              2021-11-06
_audit_creation_method            'Materials Studio'
_symmetry_space_group_name_H-M    'P1'
_symmetry_Int_Tables_number       1
_symmetry_cell_setting            triclinic
loop_
_symmetry_equiv_pos_as_xyz
  x,y,z
_cell_length_a                    32.4367
_cell_length_b                    32.4368
_cell_length_c                    42.0488
_cell_angle_alpha                 90.0003
_cell_angle_beta                  89.9997
_cell_angle_gamma                 119.9987
loop_
_atom_site_label
_atom_site_type_symbol
_atom_site_fract_x
_atom_site_fract_y
_atom_site_fract_z
_atom_site_U_iso_or_equiv
_atom_site_adp_type
_atom_site_occupancy
C1     C     0.37024   0.96291   0.99029   0.00000  Uiso   1.00
C2     C     0.41813   0.98467   0.99919   0.00000  Uiso   1.00
C3     C     0.43913   0.02666   0.01605   0.00000  Uiso   1.00
C4     C     0.41300   0.04842   0.02495   0.00000  Uiso   1.00
C5     C     0.36437   0.02687   0.01642   0.00000  Uiso   1.00
C6     C     0.34316   0.98447   0.99882   0.00000  Uiso   1.00
O1     O     0.34888   0.92050   0.97300   0.00000  Uiso   1.00
O2     O     0.44709   0.96613   0.99172   0.00000  Uiso   1.00
O3     O     0.48663   0.04519   0.02351   0.00000  Uiso   1.00
O4     O     0.43405   0.09083   0.04223   0.00000  Uiso   1.00
O5     O     0.33800   0.04801   0.02588   0.00000  Uiso   1.00
O6     O     0.29566   0.96333   0.98936   0.00000  Uiso   1.00
C7     C     0.98471   0.34292   0.01640   0.00000  Uiso   1.00
C8     C     0.02711   0.36412   0.99880   0.00000  Uiso   1.00
C9     C     0.04866   0.41275   0.99027   0.00000  Uiso   1.00
C10    C     0.02690   0.43888   0.99917   0.00000  Uiso   1.00
C11    C     0.98491   0.41789   0.01602   0.00000  Uiso   1.00
C12    C     0.96315   0.37000   0.02492   0.00000  Uiso   1.00
O7     O     0.96357   0.29541   0.02585   0.00000  Uiso   1.00
O8     O     0.04825   0.33775   0.98934   0.00000  Uiso   1.00
O9     O     0.09107   0.43380   0.97298   0.00000  Uiso   1.00
O10    O     0.04544   0.48638   0.99170   0.00000  Uiso   1.00
O11    O     0.96637   0.44685   0.02349   0.00000  Uiso   1.00
O12    O     0.92074   0.34864   0.04221   0.00000  Uiso   1.00
C13    C     0.64746   0.66841   0.99881   0.00000  Uiso   1.00
C14    C     0.66866   0.64721   0.01641   0.00000  Uiso   1.00
C15    C     0.64158   0.59859   0.02495   0.00000  Uiso   1.00
C16    C     0.59369   0.57245   0.01604   0.00000  Uiso   1.00
C17    C     0.57270   0.59345   0.99918   0.00000  Uiso   1.00
C18    C     0.59883   0.64133   0.99027   0.00000  Uiso   1.00
O13    O     0.67383   0.71591   0.98935   0.00000  Uiso   1.00
O14    O     0.71616   0.67358   0.02587   0.00000  Uiso   1.00
O15    O     0.66293   0.57753   0.04224   0.00000  Uiso   1.00
O16    O     0.56472   0.52495   0.02352   0.00000  Uiso   1.00
O17    O     0.52520   0.56448   0.99171   0.00000  Uiso   1.00
O18    O     0.57778   0.66269   0.97298   0.00000  Uiso   1.00
C19    C     0.59369   0.02666   0.01604   0.00000  Uiso   1.00
C20    C     0.64158   0.04842   0.02493   0.00000  Uiso   1.00
C21    C     0.66866   0.02686   0.01641   0.00000  Uiso   1.00
C22    C     0.64746   0.98447   0.99881   0.00000  Uiso   1.00
C23    C     0.59883   0.96291   0.99028   0.00000  Uiso   1.00
C24    C     0.57269   0.98466   0.99918   0.00000  Uiso   1.00
O19    O     0.56472   0.04519   0.02351   0.00000  Uiso   1.00
O20    O     0.66293   0.09083   0.04222   0.00000  Uiso   1.00
O21    O     0.71616   0.04800   0.02586   0.00000  Uiso   1.00
O22    O     0.67383   0.96333   0.98935   0.00000  Uiso   1.00
O23    O     0.57777   0.92050   0.97299   0.00000  Uiso   1.00
O24    O     0.52519   0.96613   0.99172   0.00000  Uiso   1.00
C25    C     0.98471   0.64721   0.01641   0.00000  Uiso   1.00
C26    C     0.02711   0.66841   0.99881   0.00000  Uiso   1.00
C27    C     0.04866   0.64134   0.99028   0.00000  Uiso   1.00
C28    C     0.02690   0.59345   0.99918   0.00000  Uiso   1.00
C29    C     0.98491   0.57245   0.01603   0.00000  Uiso   1.00
C30    C     0.96315   0.59858   0.02493   0.00000  Uiso   1.00
O25    O     0.96357   0.67358   0.02587   0.00000  Uiso   1.00
O26    O     0.04825   0.71592   0.98935   0.00000  Uiso   1.00
O27    O     0.09107   0.66269   0.97299   0.00000  Uiso   1.00
O28    O     0.04544   0.56448   0.99171   0.00000  Uiso   1.00
O29    O     0.96637   0.52495   0.02349   0.00000  Uiso   1.00
O30    O     0.92075   0.57753   0.04222   0.00000  Uiso   1.00
C31    C     0.34317   0.36412   0.99882   0.00000  Uiso   1.00
C32    C     0.36437   0.34293   0.01642   0.00000  Uiso   1.00
C33    C     0.41300   0.37000   0.02494   0.00000  Uiso   1.00
C34    C     0.43913   0.41789   0.01604   0.00000  Uiso   1.00
C35    C     0.41813   0.43889   0.99919   0.00000  Uiso   1.00
C36    C     0.37024   0.41275   0.99029   0.00000  Uiso   1.00
O31    O     0.29567   0.33776   0.98936   0.00000  Uiso   1.00
O32    O     0.33800   0.29542   0.02588   0.00000  Uiso   1.00
O33    O     0.43406   0.34865   0.04223   0.00000  Uiso   1.00
O34    O     0.48663   0.44686   0.02351   0.00000  Uiso   1.00
O35    O     0.44710   0.48639   0.99172   0.00000  Uiso   1.00
O36    O     0.34889   0.43381   0.97300   0.00000  Uiso   1.00
C37    C     0.03692   0.29628   0.32360   0.00000  Uiso   1.00
C38    C     0.08481   0.31803   0.33250   0.00000  Uiso   1.00
C39    C     0.10581   0.36002   0.34935   0.00000  Uiso   1.00
C40    C     0.07967   0.38178   0.35825   0.00000  Uiso   1.00
C41    C     0.03104   0.36023   0.34972   0.00000  Uiso   1.00
C42    C     0.00985   0.31783   0.33212   0.00000  Uiso   1.00
O37    O     0.01557   0.25386   0.30631   0.00000  Uiso   1.00
O38    O     0.11378   0.29949   0.32504   0.00000  Uiso   1.00
O39    O     0.15331   0.37856   0.35683   0.00000  Uiso   1.00
O40    O     0.10073   0.42419   0.37554   0.00000  Uiso   1.00
O41    O     0.00468   0.38137   0.35918   0.00000  Uiso   1.00
O42    O     0.96234   0.29669   0.32266   0.00000  Uiso   1.00
C43    C     0.65139   0.67628   0.34975   0.00000  Uiso   1.00
C44    C     0.69378   0.69748   0.33215   0.00000  Uiso   1.00
C45    C     0.71534   0.74610   0.32361   0.00000  Uiso   1.00
C46    C     0.69358   0.77224   0.33251   0.00000  Uiso   1.00
C47    C     0.65159   0.75125   0.34937   0.00000  Uiso   1.00
C48    C     0.62984   0.70336   0.35827   0.00000  Uiso   1.00
O43    O     0.63025   0.62878   0.35920   0.00000  Uiso   1.00
O44    O     0.71492   0.67111   0.32269   0.00000  Uiso   1.00
O45    O     0.75775   0.76716   0.30632   0.00000  Uiso   1.00
O46    O     0.71212   0.81974   0.32504   0.00000  Uiso   1.00
O47    O     0.63306   0.78022   0.35683   0.00000  Uiso   1.00
O48    O     0.58743   0.68201   0.37556   0.00000  Uiso   1.00
C49    C     0.31414   1.00177   0.33216   0.00000  Uiso   1.00
C50    C     0.33533   0.98057   0.34976   0.00000  Uiso   1.00
C51    C     0.30826   0.93194   0.35829   0.00000  Uiso   1.00
C52    C     0.26037   0.90581   0.34939   0.00000  Uiso   1.00
C53    C     0.23938   0.92681   0.33253   0.00000  Uiso   1.00
C54    C     0.26551   0.97470   0.32363   0.00000  Uiso   1.00
O49    O     0.34051   0.04928   0.32270   0.00000  Uiso   1.00
O50    O     0.38284   0.00694   0.35922   0.00000  Uiso   1.00
O51    O     0.32961   0.91088   0.37558   0.00000  Uiso   1.00
O52    O     0.23140   0.85831   0.35686   0.00000  Uiso   1.00
O53    O     0.19188   0.89784   0.32505   0.00000  Uiso   1.00
O54    O     0.24446   0.99605   0.30634   0.00000  Uiso   1.00
C55    C     0.26037   0.36002   0.34937   0.00000  Uiso   1.00
C56    C     0.30826   0.38178   0.35828   0.00000  Uiso   1.00
C57    C     0.33534   0.36023   0.34975   0.00000  Uiso   1.00
C58    C     0.31414   0.31784   0.33215   0.00000  Uiso   1.00
C59    C     0.26551   0.29628   0.32362   0.00000  Uiso   1.00
C60    C     0.23938   0.31803   0.33252   0.00000  Uiso   1.00
O55    O     0.23139   0.37855   0.35684   0.00000  Uiso   1.00
O56    O     0.32961   0.42419   0.37556   0.00000  Uiso   1.00
O57    O     0.38284   0.38138   0.35921   0.00000  Uiso   1.00
O58    O     0.34051   0.29670   0.32269   0.00000  Uiso   1.00
O59    O     0.24446   0.25387   0.30633   0.00000  Uiso   1.00
O60    O     0.19187   0.29949   0.32505   0.00000  Uiso   1.00
C61    C     0.65139   0.98058   0.34974   0.00000  Uiso   1.00
C62    C     0.69379   1.00178   0.33214   0.00000  Uiso   1.00
C63    C     0.71535   0.97470   0.32361   0.00000  Uiso   1.00
C64    C     0.69359   0.92681   0.33251   0.00000  Uiso   1.00
C65    C     0.65160   0.90581   0.34936   0.00000  Uiso   1.00
C66    C     0.62984   0.93195   0.35827   0.00000  Uiso   1.00
O61    O     0.63026   0.00694   0.35919   0.00000  Uiso   1.00
O62    O     0.71493   0.04928   0.32268   0.00000  Uiso   1.00
O63    O     0.75776   0.99605   0.30632   0.00000  Uiso   1.00
O64    O     0.71212   0.89784   0.32504   0.00000  Uiso   1.00
O65    O     0.63306   0.85831   0.35683   0.00000  Uiso   1.00
O66    O     0.58743   0.91089   0.37555   0.00000  Uiso   1.00
C67    C     0.00985   0.69749   0.33214   0.00000  Uiso   1.00
C68    C     0.03104   0.67629   0.34975   0.00000  Uiso   1.00
C69    C     0.07967   0.70336   0.35828   0.00000  Uiso   1.00
C70    C     0.10581   0.75125   0.34938   0.00000  Uiso   1.00
C71    C     0.08481   0.77225   0.33252   0.00000  Uiso   1.00
C72    C     0.03692   0.74612   0.32362   0.00000  Uiso   1.00
O67    O     0.96234   0.67112   0.32268   0.00000  Uiso   1.00
O68    O     0.00468   0.62878   0.35920   0.00000  Uiso   1.00
O69    O     0.10073   0.68201   0.37556   0.00000  Uiso   1.00
O70    O     0.15331   0.78022   0.35684   0.00000  Uiso   1.00
O71    O     0.11378   0.81976   0.32505   0.00000  Uiso   1.00
O72    O     0.01557   0.76717   0.30633   0.00000  Uiso   1.00
C73    C     0.70361   0.62959   0.65694   0.00000  Uiso   1.00
C74    C     0.75150   0.65135   0.66584   0.00000  Uiso   1.00
C75    C     0.77250   0.69334   0.68270   0.00000  Uiso   1.00
C76    C     0.74636   0.71510   0.69160   0.00000  Uiso   1.00
C77    C     0.69773   0.69355   0.68307   0.00000  Uiso   1.00
C78    C     0.67654   0.65115   0.66547   0.00000  Uiso   1.00
O73    O     0.68226   0.58718   0.63965   0.00000  Uiso   1.00
O74    O     0.78047   0.63281   0.65838   0.00000  Uiso   1.00
O75    O     0.82000   0.71187   0.69017   0.00000  Uiso   1.00
O76    O     0.76742   0.75750   0.70889   0.00000  Uiso   1.00
O77    O     0.67137   0.71469   0.69253   0.00000  Uiso   1.00
O78    O     0.62903   0.63001   0.65601   0.00000  Uiso   1.00
C79    C     0.31808   0.00960   0.68309   0.00000  Uiso   1.00
C80    C     0.36048   0.03080   0.66549   0.00000  Uiso   1.00
C81    C     0.38204   0.07943   0.65696   0.00000  Uiso   1.00
C82    C     0.36028   0.10556   0.66586   0.00000  Uiso   1.00
C83    C     0.31829   0.08457   0.68272   0.00000  Uiso   1.00
C84    C     0.29653   0.03668   0.69162   0.00000  Uiso   1.00
O79    O     0.29694   0.96210   0.69255   0.00000  Uiso   1.00
O80    O     0.38162   0.00443   0.65604   0.00000  Uiso   1.00
O81    O     0.42445   0.10048   0.63967   0.00000  Uiso   1.00
O82    O     0.37882   0.15306   0.65839   0.00000  Uiso   1.00
O83    O     0.29975   0.11354   0.69018   0.00000  Uiso   1.00
O84    O     0.25412   0.01533   0.70890   0.00000  Uiso   1.00
C85    C     0.98083   0.33509   0.66546   0.00000  Uiso   1.00
C86    C     1.00203   0.31389   0.68307   0.00000  Uiso   1.00
C87    C     0.97495   0.26526   0.69160   0.00000  Uiso   1.00
C88    C     0.92706   0.23913   0.68270   0.00000  Uiso   1.00
C89    C     0.90607   0.26012   0.66583   0.00000  Uiso   1.00
C90    C     0.93220   0.30801   0.65693   0.00000  Uiso   1.00
O85    O     0.00720   0.38259   0.65600   0.00000  Uiso   1.00
O86    O     0.04953   0.34026   0.69253   0.00000  Uiso   1.00
O87    O     0.99631   0.24421   0.70889   0.00000  Uiso   1.00
O88    O     0.89809   0.19163   0.69017   0.00000  Uiso   1.00
O89    O     0.85857   0.23115   0.65836   0.00000  Uiso   1.00
O90    O     0.91115   0.32936   0.63964   0.00000  Uiso   1.00
C91    C     0.92706   0.69334   0.68271   0.00000  Uiso   1.00
C92    C     0.97495   0.71510   0.69161   0.00000  Uiso   1.00
C93    C     1.00203   0.69355   0.68308   0.00000  Uiso   1.00
C94    C     0.98083   0.65115   0.66548   0.00000  Uiso   1.00
C95    C     0.93220   0.62959   0.65695   0.00000  Uiso   1.00
C96    C     0.90607   0.65135   0.66585   0.00000  Uiso   1.00
O91    O     0.89809   0.71187   0.69017   0.00000  Uiso   1.00
O92    O     0.99630   0.75751   0.70889   0.00000  Uiso   1.00
O93    O     0.04953   0.71469   0.69254   0.00000  Uiso   1.00
O94    O     0.00720   0.63001   0.65602   0.00000  Uiso   1.00
O95    O     0.91115   0.58718   0.63966   0.00000  Uiso   1.00
O96    O     0.85856   0.63281   0.65838   0.00000  Uiso   1.00
C97    C     0.31809   0.31390   0.68308   0.00000  Uiso   1.00
C98    C     0.36049   0.33510   0.66548   0.00000  Uiso   1.00
C99    C     0.38204   0.30802   0.65695   0.00000  Uiso   1.00
C100   C     0.36028   0.26013   0.66585   0.00000  Uiso   1.00
C101   C     0.31829   0.23913   0.68270   0.00000  Uiso   1.00
C102   C     0.29654   0.26527   0.69161   0.00000  Uiso   1.00
O97    O     0.29695   0.34027   0.69253   0.00000  Uiso   1.00
O98    O     0.38163   0.38260   0.65602   0.00000  Uiso   1.00
O99    O     0.42445   0.32937   0.63966   0.00000  Uiso   1.00
O100   O     0.37882   0.23116   0.65838   0.00000  Uiso   1.00
O101   O     0.29975   0.19163   0.69017   0.00000  Uiso   1.00
O102   O     0.25413   0.24422   0.70889   0.00000  Uiso   1.00
C103   C     0.67654   0.03080   0.66547   0.00000  Uiso   1.00
C104   C     0.69774   0.00960   0.68308   0.00000  Uiso   1.00
C105   C     0.74637   0.03668   0.69160   0.00000  Uiso   1.00
C106   C     0.77250   0.08457   0.68270   0.00000  Uiso   1.00
C107   C     0.75151   0.10556   0.66585   0.00000  Uiso   1.00
C108   C     0.70362   0.07943   0.65695   0.00000  Uiso   1.00
O103   O     0.62904   0.00443   0.65601   0.00000  Uiso   1.00
O104   O     0.67138   0.96210   0.69253   0.00000  Uiso   1.00
O105   O     0.76743   0.01533   0.70889   0.00000  Uiso   1.00
O106   O     0.82001   0.11353   0.69017   0.00000  Uiso   1.00
O107   O     0.78047   0.15307   0.65838   0.00000  Uiso   1.00
O108   O     0.68226   0.10049   0.63966   0.00000  Uiso   1.00
C109   C     0.35991   0.16148   0.11629   0.00000  Uiso   1.00
C110   C     0.37002   0.14446   0.08855   0.00000  Uiso   1.00
C111   C     0.38141   0.17179   0.06032   0.00000  Uiso   1.00
C112   C     0.38141   0.21505   0.06031   0.00000  Uiso   1.00
C113   C     0.37002   0.23100   0.08855   0.00000  Uiso   1.00
C114   C     0.35991   0.20387   0.11629   0.00000  Uiso   1.00
O109   O     0.34914   0.13734   0.14489   0.00000  Uiso   1.00
O110   O     0.36847   0.10071   0.08824   0.00000  Uiso   1.00
O111   O     0.39169   0.15481   0.03268   0.00000  Uiso   1.00
O112   O     0.39169   0.24231   0.03268   0.00000  Uiso   1.00
O113   O     0.36847   0.27319   0.08824   0.00000  Uiso   1.00
O114   O     0.34914   0.21724   0.14489   0.00000  Uiso   1.00
C115   C     0.85012   0.20386   0.11626   0.00000  Uiso   1.00
C116   C     0.86713   0.23099   0.08853   0.00000  Uiso   1.00
C117   C     0.83979   0.21504   0.06029   0.00000  Uiso   1.00
C118   C     0.79653   0.17178   0.06030   0.00000  Uiso   1.00
C119   C     0.78059   0.14445   0.08853   0.00000  Uiso   1.00
C120   C     0.80772   0.16147   0.11627   0.00000  Uiso   1.00
O115   O     0.87426   0.21723   0.14487   0.00000  Uiso   1.00
O116   O     0.91087   0.27318   0.08822   0.00000  Uiso   1.00
O117   O     0.85677   0.24231   0.03266   0.00000  Uiso   1.00
O118   O     0.76927   0.15480   0.03266   0.00000  Uiso   1.00
O119   O     0.73840   0.10070   0.08823   0.00000  Uiso   1.00
O120   O     0.79436   0.13733   0.14487   0.00000  Uiso   1.00
C121   C     0.79653   0.63018   0.06031   0.00000  Uiso   1.00
C122   C     0.83980   0.63018   0.06031   0.00000  Uiso   1.00
C123   C     0.86713   0.64157   0.08854   0.00000  Uiso   1.00
C124   C     0.85012   0.65169   0.11628   0.00000  Uiso   1.00
C125   C     0.80772   0.65168   0.11628   0.00000  Uiso   1.00
C126   C     0.78059   0.64157   0.08855   0.00000  Uiso   1.00
O121   O     0.76927   0.61989   0.03268   0.00000  Uiso   1.00
O122   O     0.85677   0.61990   0.03267   0.00000  Uiso   1.00
O123   O     0.91088   0.64312   0.08823   0.00000  Uiso   1.00
O124   O     0.87426   0.66246   0.14488   0.00000  Uiso   1.00
O125   O     0.79435   0.66245   0.14489   0.00000  Uiso   1.00
O126   O     0.73840   0.64312   0.08824   0.00000  Uiso   1.00
C127   C     0.17203   0.38115   0.95491   0.00000  Uiso   1.00
C128   C     0.21529   0.38116   0.95491   0.00000  Uiso   1.00
C129   C     0.23124   0.36977   0.92668   0.00000  Uiso   1.00
C130   C     0.20411   0.35966   0.89894   0.00000  Uiso   1.00
C131   C     0.16172   0.35965   0.89894   0.00000  Uiso   1.00
C132   C     0.14470   0.36976   0.92667   0.00000  Uiso   1.00
O127   O     0.15504   0.39144   0.98254   0.00000  Uiso   1.00
O128   O     0.24255   0.39144   0.98255   0.00000  Uiso   1.00
O129   O     0.27344   0.36822   0.92699   0.00000  Uiso   1.00
O130   O     0.21749   0.34889   0.87034   0.00000  Uiso   1.00
O131   O     0.13758   0.34888   0.87033   0.00000  Uiso   1.00
O132   O     0.10095   0.36821   0.92698   0.00000  Uiso   1.00
C133   C     0.65193   0.80747   0.89894   0.00000  Uiso   1.00
C134   C     0.64181   0.78034   0.92667   0.00000  Uiso   1.00
C135   C     0.63043   0.79629   0.95491   0.00000  Uiso   1.00
C136   C     0.63043   0.83955   0.95491   0.00000  Uiso   1.00
C137   C     0.64182   0.86688   0.92667   0.00000  Uiso   1.00
C138   C     0.65193   0.84987   0.89894   0.00000  Uiso   1.00
O133   O     0.66270   0.79410   0.87033   0.00000  Uiso   1.00
O134   O     0.64337   0.73815   0.92698   0.00000  Uiso   1.00
O135   O     0.62014   0.76902   0.98254   0.00000  Uiso   1.00
O136   O     0.62014   0.85653   0.98254   0.00000  Uiso   1.00
O137   O     0.64337   0.91063   0.92698   0.00000  Uiso   1.00
O138   O     0.66271   0.87401   0.87033   0.00000  Uiso   1.00
C139   C     0.20410   0.84988   0.89895   0.00000  Uiso   1.00
C140   C     0.23123   0.86689   0.92669   0.00000  Uiso   1.00
C141   C     0.21528   0.83956   0.95492   0.00000  Uiso   1.00
C142   C     0.17202   0.79630   0.95492   0.00000  Uiso   1.00
C143   C     0.14469   0.78036   0.92669   0.00000  Uiso   1.00
C144   C     0.16171   0.80749   0.89895   0.00000  Uiso   1.00
O139   O     0.21747   0.87402   0.87035   0.00000  Uiso   1.00
O140   O     0.27342   0.91064   0.92700   0.00000  Uiso   1.00
O141   O     0.24254   0.85654   0.98256   0.00000  Uiso   1.00
O142   O     0.15504   0.76903   0.98256   0.00000  Uiso   1.00
O143   O     0.10095   0.73816   0.92699   0.00000  Uiso   1.00
O144   O     0.13758   0.79412   0.87034   0.00000  Uiso   1.00
C145   C     0.02657   0.49482   0.44960   0.00000  Uiso   1.00
C146   C     0.03668   0.47780   0.42186   0.00000  Uiso   1.00
C147   C     0.04807   0.50514   0.39363   0.00000  Uiso   1.00
C148   C     0.04808   0.54840   0.39363   0.00000  Uiso   1.00
C149   C     0.03669   0.56435   0.42187   0.00000  Uiso   1.00
C150   C     0.02658   0.53721   0.44960   0.00000  Uiso   1.00
O145   O     0.01580   0.47067   0.47820   0.00000  Uiso   1.00
O146   O     0.03513   0.43405   0.42155   0.00000  Uiso   1.00
O147   O     0.05836   0.48817   0.36599   0.00000  Uiso   1.00
O148   O     0.05837   0.57567   0.36600   0.00000  Uiso   1.00
O149   O     0.03514   0.60654   0.42157   0.00000  Uiso   1.00
O150   O     0.01581   0.55058   0.47821   0.00000  Uiso   1.00
C151   C     0.51679   0.53722   0.44961   0.00000  Uiso   1.00
C152   C     0.53380   0.56435   0.42188   0.00000  Uiso   1.00
C153   C     0.50647   0.54841   0.39364   0.00000  Uiso   1.00
C154   C     0.46321   0.50515   0.39365   0.00000  Uiso   1.00
C155   C     0.44727   0.47782   0.42188   0.00000  Uiso   1.00
C156   C     0.47440   0.49483   0.44961   0.00000  Uiso   1.00
O151   O     0.54094   0.55058   0.47822   0.00000  Uiso   1.00
O152   O     0.57755   0.60655   0.42157   0.00000  Uiso   1.00
O153   O     0.52345   0.57567   0.36601   0.00000  Uiso   1.00
O154   O     0.43594   0.48817   0.36601   0.00000  Uiso   1.00
O155   O     0.40507   0.43407   0.42157   0.00000  Uiso   1.00
O156   O     0.46104   0.47068   0.47822   0.00000  Uiso   1.00
C157   C     0.46322   0.96353   0.39365   0.00000  Uiso   1.00
C158   C     0.50648   0.96354   0.39364   0.00000  Uiso   1.00
C159   C     0.53382   0.97493   0.42187   0.00000  Uiso   1.00
C160   C     0.51680   0.98504   0.44961   0.00000  Uiso   1.00
C161   C     0.47441   0.98503   0.44962   0.00000  Uiso   1.00
C162   C     0.44727   0.97492   0.42189   0.00000  Uiso   1.00
O157   O     0.43594   0.95325   0.36601   0.00000  Uiso   1.00
O158   O     0.52346   0.95326   0.36600   0.00000  Uiso   1.00
O159   O     0.57757   0.97649   0.42156   0.00000  Uiso   1.00
O160   O     0.54094   0.99580   0.47822   0.00000  Uiso   1.00
O161   O     0.46104   0.99579   0.47823   0.00000  Uiso   1.00
O162   O     0.40508   0.97647   0.42158   0.00000  Uiso   1.00
C163   C     0.83870   0.71451   0.28825   0.00000  Uiso   1.00
C164   C     0.88196   0.71452   0.28824   0.00000  Uiso   1.00
C165   C     0.89791   0.70313   0.26001   0.00000  Uiso   1.00
C166   C     0.87078   0.69301   0.23228   0.00000  Uiso   1.00
C167   C     0.82838   0.69300   0.23228   0.00000  Uiso   1.00
C168   C     0.81137   0.70312   0.26001   0.00000  Uiso   1.00
O163   O     0.82172   0.72479   0.31588   0.00000  Uiso   1.00
O164   O     0.90923   0.72481   0.31588   0.00000  Uiso   1.00
O165   O     0.94011   0.70158   0.26032   0.00000  Uiso   1.00
O166   O     0.88415   0.68223   0.20367   0.00000  Uiso   1.00
O167   O     0.80424   0.68222   0.20367   0.00000  Uiso   1.00
O168   O     0.76762   0.70156   0.26032   0.00000  Uiso   1.00
C169   C     0.31862   0.14084   0.23229   0.00000  Uiso   1.00
C170   C     0.30850   0.11371   0.26002   0.00000  Uiso   1.00
C171   C     0.29712   0.12966   0.28826   0.00000  Uiso   1.00
C172   C     0.29712   0.17292   0.28826   0.00000  Uiso   1.00
C173   C     0.30851   0.20025   0.26002   0.00000  Uiso   1.00
C174   C     0.31862   0.18323   0.23229   0.00000  Uiso   1.00
O169   O     0.32938   0.12746   0.20368   0.00000  Uiso   1.00
O170   O     0.31005   0.07151   0.26033   0.00000  Uiso   1.00
O171   O     0.28683   0.10239   0.31589   0.00000  Uiso   1.00
O172   O     0.28684   0.18990   0.31589   0.00000  Uiso   1.00
O173   O     0.31006   0.24400   0.26033   0.00000  Uiso   1.00
O174   O     0.32939   0.20737   0.20368   0.00000  Uiso   1.00
C175   C     0.87078   0.18322   0.23226   0.00000  Uiso   1.00
C176   C     0.89791   0.20024   0.26000   0.00000  Uiso   1.00
C177   C     0.88197   0.17291   0.28823   0.00000  Uiso   1.00
C178   C     0.83870   0.12965   0.28824   0.00000  Uiso   1.00
C179   C     0.81137   0.11370   0.26000   0.00000  Uiso   1.00
C180   C     0.82839   0.14083   0.23227   0.00000  Uiso   1.00
O175   O     0.88414   0.20735   0.20366   0.00000  Uiso   1.00
O176   O     0.94010   0.24399   0.26030   0.00000  Uiso   1.00
O177   O     0.90923   0.18990   0.31587   0.00000  Uiso   1.00
O178   O     0.82173   0.10239   0.31588   0.00000  Uiso   1.00
O179   O     0.76763   0.07151   0.26031   0.00000  Uiso   1.00
O180   O     0.80425   0.12745   0.20366   0.00000  Uiso   1.00
C181   C     0.69326   0.82814   0.78294   0.00000  Uiso   1.00
C182   C     0.70338   0.81112   0.75520   0.00000  Uiso   1.00
C183   C     0.71477   0.83846   0.72697   0.00000  Uiso   1.00
C184   C     0.71477   0.88172   0.72697   0.00000  Uiso   1.00
C185   C     0.70339   0.89767   0.75521   0.00000  Uiso   1.00
C186   C     0.69326   0.87053   0.78294   0.00000  Uiso   1.00
O181   O     0.68248   0.80399   0.81154   0.00000  Uiso   1.00
O182   O     0.70182   0.76737   0.75490   0.00000  Uiso   1.00
O183   O     0.72506   0.82148   0.69934   0.00000  Uiso   1.00
O184   O     0.72506   0.90899   0.69934   0.00000  Uiso   1.00
O185   O     0.70184   0.93986   0.75490   0.00000  Uiso   1.00
O186   O     0.68249   0.88390   0.81155   0.00000  Uiso   1.00
C187   C     0.18347   0.87054   0.78295   0.00000  Uiso   1.00
C188   C     0.20049   0.89767   0.75522   0.00000  Uiso   1.00
C189   C     0.17316   0.88172   0.72698   0.00000  Uiso   1.00
C190   C     0.12990   0.83846   0.72698   0.00000  Uiso   1.00
C191   C     0.11395   0.81113   0.75521   0.00000  Uiso   1.00
C192   C     0.14108   0.82814   0.78295   0.00000  Uiso   1.00
O187   O     0.20760   0.88390   0.81156   0.00000  Uiso   1.00
O188   O     0.24423   0.93986   0.75491   0.00000  Uiso   1.00
O189   O     0.19014   0.90899   0.69934   0.00000  Uiso   1.00
O190   O     0.10264   0.82149   0.69934   0.00000  Uiso   1.00
O191   O     0.07176   0.76738   0.75490   0.00000  Uiso   1.00
O192   O     0.12770   0.80400   0.81155   0.00000  Uiso   1.00
C193   C     0.12991   0.29686   0.72697   0.00000  Uiso   1.00
C194   C     0.17317   0.29687   0.72697   0.00000  Uiso   1.00
C195   C     0.20050   0.30826   0.75520   0.00000  Uiso   1.00
C196   C     0.18348   0.31836   0.78294   0.00000  Uiso   1.00
C197   C     0.14109   0.31836   0.78294   0.00000  Uiso   1.00
C198   C     0.11396   0.30825   0.75520   0.00000  Uiso   1.00
O193   O     0.10264   0.28657   0.69933   0.00000  Uiso   1.00
O194   O     0.19016   0.28658   0.69933   0.00000  Uiso   1.00
O195   O     0.24425   0.30981   0.75490   0.00000  Uiso   1.00
O196   O     0.20762   0.32913   0.81155   0.00000  Uiso   1.00
O197   O     0.12771   0.32912   0.81154   0.00000  Uiso   1.00
O198   O     0.07177   0.30980   0.75489   0.00000  Uiso   1.00
C199   C     0.50539   0.04782   0.62159   0.00000  Uiso   1.00
C200   C     0.54866   0.04783   0.62159   0.00000  Uiso   1.00
C201   C     0.56460   0.03644   0.59335   0.00000  Uiso   1.00
C202   C     0.53746   0.02633   0.56562   0.00000  Uiso   1.00
C203   C     0.49507   0.02632   0.56562   0.00000  Uiso   1.00
C204   C     0.47805   0.03643   0.59336   0.00000  Uiso   1.00
O199   O     0.48842   0.05811   0.64923   0.00000  Uiso   1.00
O200   O     0.57593   0.05812   0.64922   0.00000  Uiso   1.00
O201   O     0.60680   0.03490   0.59365   0.00000  Uiso   1.00
O202   O     0.55083   0.01556   0.53701   0.00000  Uiso   1.00
O203   O     0.47092   0.01555   0.53702   0.00000  Uiso   1.00
O204   O     0.43430   0.03488   0.59367   0.00000  Uiso   1.00
C205   C     0.98529   0.47416   0.56560   0.00000  Uiso   1.00
C206   C     0.97518   0.44703   0.59334   0.00000  Uiso   1.00
C207   C     0.96380   0.46297   0.62157   0.00000  Uiso   1.00
C208   C     0.96380   0.50623   0.62158   0.00000  Uiso   1.00
C209   C     0.97519   0.53357   0.59335   0.00000  Uiso   1.00
C210   C     0.98529   0.51655   0.56561   0.00000  Uiso   1.00
O205   O     0.99605   0.46079   0.53699   0.00000  Uiso   1.00
O206   O     0.97673   0.40483   0.59364   0.00000  Uiso   1.00
O207   O     0.95351   0.43570   0.64921   0.00000  Uiso   1.00
O208   O     0.95352   0.52321   0.64922   0.00000  Uiso   1.00
O209   O     0.97674   0.57732   0.59366   0.00000  Uiso   1.00
O210   O     0.99606   0.54069   0.53700   0.00000  Uiso   1.00
C211   C     0.53747   0.51655   0.56561   0.00000  Uiso   1.00
C212   C     0.56460   0.53357   0.59334   0.00000  Uiso   1.00
C213   C     0.54866   0.50624   0.62158   0.00000  Uiso   1.00
C214   C     0.50540   0.46297   0.62158   0.00000  Uiso   1.00
C215   C     0.47806   0.44703   0.59334   0.00000  Uiso   1.00
C216   C     0.49507   0.47416   0.56561   0.00000  Uiso   1.00
O211   O     0.55083   0.54069   0.53700   0.00000  Uiso   1.00
O212   O     0.60679   0.57731   0.59365   0.00000  Uiso   1.00
O213   O     0.57592   0.52321   0.64921   0.00000  Uiso   1.00
O214   O     0.48842   0.43571   0.64921   0.00000  Uiso   1.00
O215   O     0.43432   0.40483   0.59365   0.00000  Uiso   1.00
O216   O     0.47093   0.46079   0.53700   0.00000  Uiso   1.00
Cu1    Cu    0.33925   0.17235   0.17428   0.00000  Uiso   1.00
Cu2    Cu    0.83926   0.17234   0.17426   0.00000  Uiso   1.00
Cu3    Cu    0.83925   0.67233   0.17428   0.00000  Uiso   1.00
Cu4    Cu    0.17260   0.33900   0.84094   0.00000  Uiso   1.00
Cu5    Cu    0.67258   0.83900   0.84094   0.00000  Uiso   1.00
Cu6    Cu    0.17259   0.83901   0.84095   0.00000  Uiso   1.00
Cu7    Cu    0.00592   0.50568   0.50760   0.00000  Uiso   1.00
Cu8    Cu    0.50594   0.50568   0.50761   0.00000  Uiso   1.00
Cu9    Cu    0.50593   0.00567   0.50762   0.00000  Uiso   1.00
Cu10   Cu    0.50590   0.00565   0.00762   0.00000  Uiso   1.00
Cu11   Cu    0.00590   0.50566   0.00759   0.00000  Uiso   1.00
Cu12   Cu    0.50591   0.50567   0.00761   0.00000  Uiso   1.00
Cu13   Cu    0.17258   0.33902   0.34094   0.00000  Uiso   1.00
Cu14   Cu    0.67259   0.83903   0.34093   0.00000  Uiso   1.00
Cu15   Cu    0.17259   0.83903   0.34095   0.00000  Uiso   1.00
Cu16   Cu    0.83927   0.67233   0.67428   0.00000  Uiso   1.00
Cu17   Cu    0.33928   0.17235   0.67427   0.00000  Uiso   1.00
Cu18   Cu    0.83928   0.17234   0.67427   0.00000  Uiso   1.00
Zn1    Zn    0.29015   0.91261   0.96805   0.00000  Uiso   1.00
Zn2    Zn    0.09897   0.38296   0.96803   0.00000  Uiso   1.00
Zn3    Zn    0.62861   0.72142   0.96803   0.00000  Uiso   1.00
Zn4    Zn    0.91284   0.28991   0.04717   0.00000  Uiso   1.00
Zn5    Zn    0.72167   0.62837   0.04719   0.00000  Uiso   1.00
Zn6    Zn    0.38322   0.09873   0.04719   0.00000  Uiso   1.00
Zn7    Zn    0.72167   0.09873   0.04718   0.00000  Uiso   1.00
Zn8    Zn    0.91285   0.62837   0.04718   0.00000  Uiso   1.00
Zn9    Zn    0.38322   0.28991   0.04719   0.00000  Uiso   1.00
Zn10   Zn    0.09897   0.72143   0.96804   0.00000  Uiso   1.00
Zn11   Zn    0.29016   0.38297   0.96804   0.00000  Uiso   1.00
Zn12   Zn    0.62861   0.91260   0.96803   0.00000  Uiso   1.00
Zn13   Zn    0.95683   0.24597   0.30135   0.00000  Uiso   1.00
Zn14   Zn    0.76564   0.71632   0.30137   0.00000  Uiso   1.00
Zn15   Zn    0.29530   0.05479   0.30138   0.00000  Uiso   1.00
Zn16   Zn    0.57953   0.62327   0.38052   0.00000  Uiso   1.00
Zn17   Zn    0.38835   0.96172   0.38053   0.00000  Uiso   1.00
Zn18   Zn    0.04989   0.43209   0.38050   0.00000  Uiso   1.00
Zn19   Zn    0.38834   0.43210   0.38052   0.00000  Uiso   1.00
Zn20   Zn    0.57953   0.96173   0.38051   0.00000  Uiso   1.00
Zn21   Zn    0.04989   0.62327   0.38052   0.00000  Uiso   1.00
Zn22   Zn    0.76565   0.05479   0.30136   0.00000  Uiso   1.00
Zn23   Zn    0.95684   0.71634   0.30137   0.00000  Uiso   1.00
Zn24   Zn    0.29531   0.24597   0.30138   0.00000  Uiso   1.00
Zn25   Zn    0.62352   0.57929   0.63470   0.00000  Uiso   1.00
Zn26   Zn    0.43234   0.04964   0.63472   0.00000  Uiso   1.00
Zn27   Zn    0.96198   0.38810   0.63469   0.00000  Uiso   1.00
Zn28   Zn    0.24622   0.95659   0.71386   0.00000  Uiso   1.00
Zn29   Zn    0.05504   0.29504   0.71384   0.00000  Uiso   1.00
Zn30   Zn    0.71658   0.76541   0.71385   0.00000  Uiso   1.00
Zn31   Zn    0.05504   0.76541   0.71385   0.00000  Uiso   1.00
Zn32   Zn    0.24623   0.29506   0.71385   0.00000  Uiso   1.00
Zn33   Zn    0.71659   0.95659   0.71385   0.00000  Uiso   1.00
Zn34   Zn    0.43235   0.38811   0.63470   0.00000  Uiso   1.00
Zn35   Zn    0.62353   0.04965   0.63470   0.00000  Uiso   1.00
Zn36   Zn    0.96199   0.57929   0.63471   0.00000  Uiso   1.00
loop_
_geom_bond_atom_site_label_1
_geom_bond_atom_site_label_2
_geom_bond_distance
_geom_bond_site_symmetry_2
_ccdc_geom_bond_type
C1     C2      1.398   .     A
C1     C6      1.415   .     A
C1     O1      1.396   .     S
C2     C3      1.376   1_566 A
C2     O2      1.381   .     S
C3     C2      1.376   1_544 A
C3     C4      1.398   .     A
C3     O3      1.381   .     S
C4     C5      1.415   .     A
C4     O4      1.396   .     S
C5     C6      1.402   1_544 A
C5     O5      1.395   .     S
C6     C5      1.402   1_566 A
C6     O6      1.395   .     S
O1     Zn1     1.803   .     S
O2     Cu10    1.812   1_566 S
O3     Cu10    1.812   .     S
O4     Zn6     1.803   .     S
O5     Zn6     1.802   .     S
O6     Zn1     1.802   .     S
C7     C8      1.402   1_654 A
C7     C12     1.415   .     A
C7     O7      1.395   .     S
C8     C7      1.402   1_456 A
C8     C9      1.415   .     A
C8     O8      1.395   .     S
C9     C10     1.398   .     A
C9     O9      1.396   .     S
C10    C11     1.376   1_456 A
C10    O10     1.381   .     S
C11    C10     1.376   1_654 A
C11    C12     1.398   .     A
C11    O11     1.381   .     S
C12    O12     1.396   .     S
O7     Zn4     1.802   .     S
O8     Zn2     1.802   .     S
O9     Zn2     1.803   .     S
O10    Cu11    1.812   1_556 S
O11    Cu11    1.812   1_655 S
O12    Zn4     1.803   .     S
C13    C14     1.402   1_556 A
C13    C18     1.415   .     A
C13    O13     1.395   .     S
C14    C13     1.402   1_554 A
C14    C15     1.415   .     A
C14    O14     1.395   .     S
C15    C16     1.398   .     A
C15    O15     1.396   .     S
C16    C17     1.376   1_554 A
C16    O16     1.381   .     S
C17    C16     1.376   1_556 A
C17    C18     1.398   .     A
C17    O17     1.381   .     S
C18    O18     1.396   .     S
O13    Zn3     1.802   .     S
O14    Zn5     1.802   .     S
O15    Zn5     1.803   .     S
O16    Cu12    1.812   .     S
O17    Cu12    1.812   1_556 S
O18    Zn3     1.803   .     S
C19    C20     1.398   .     A
C19    C24     1.376   1_544 A
C19    O19     1.381   .     S
C20    C21     1.415   .     A
C20    O20     1.396   .     S
C21    C22     1.402   1_544 A
C21    O21     1.395   .     S
C22    C21     1.402   1_566 A
C22    C23     1.415   .     A
C22    O22     1.395   .     S
C23    C24     1.398   .     A
C23    O23     1.396   .     S
C24    C19     1.376   1_566 A
C24    O24     1.381   .     S
O19    Cu10    1.812   .     S
O20    Zn7     1.803   .     S
O21    Zn7     1.802   .     S
O22    Zn12    1.802   .     S
O23    Zn12    1.803   .     S
O24    Cu10    1.812   1_566 S
C25    C26     1.402   1_654 A
C25    C30     1.415   .     A
C25    O25     1.395   .     S
C26    C25     1.402   1_456 A
C26    C27     1.415   .     A
C26    O26     1.395   .     S
C27    C28     1.398   .     A
C27    O27     1.396   .     S
C28    C29     1.376   1_456 A
C28    O28     1.381   .     S
C29    C28     1.376   1_654 A
C29    C30     1.398   .     A
C29    O29     1.381   .     S
C30    O30     1.396   .     S
O25    Zn8     1.802   .     S
O26    Zn10    1.802   .     S
O27    Zn10    1.803   .     S
O28    Cu11    1.812   1_556 S
O29    Cu11    1.812   1_655 S
O30    Zn8     1.803   .     S
C31    C32     1.402   1_556 A
C31    C36     1.415   .     A
C31    O31     1.395   .     S
C32    C31     1.402   1_554 A
C32    C33     1.415   .     A
C32    O32     1.395   .     S
C33    C34     1.398   .     A
C33    O33     1.396   .     S
C34    C35     1.376   1_554 A
C34    O34     1.381   .     S
C35    C34     1.376   1_556 A
C35    C36     1.398   .     A
C35    O35     1.381   .     S
C36    O36     1.396   .     S
O31    Zn11    1.802   .     S
O32    Zn9     1.802   .     S
O33    Zn9     1.803   .     S
O34    Cu12    1.812   .     S
O35    Cu12    1.812   1_556 S
O36    Zn11    1.803   .     S
C37    C38     1.398   .     A
C37    C42     1.415   .     A
C37    O37     1.396   .     S
C38    C39     1.376   .     A
C38    O38     1.381   .     S
C39    C40     1.398   .     A
C39    O39     1.381   .     S
C40    C41     1.415   .     A
C40    O40     1.396   .     S
C41    C42     1.402   .     A
C41    O41     1.395   .     S
C42    O42     1.395   1_455 S
O37    Zn13    1.803   1_455 S
O38    Cu13    1.812   .     S
O39    Cu13    1.812   .     S
O40    Zn18    1.803   .     S
O41    Zn18    1.802   .     S
O42    C42     1.395   1_655 S
O42    Zn13    1.802   .     S
C43    C44     1.402   .     A
C43    C48     1.415   .     A
C43    O43     1.395   .     S
C44    C45     1.415   .     A
C44    O44     1.395   .     S
C45    C46     1.398   .     A
C45    O45     1.396   .     S
C46    C47     1.376   .     A
C46    O46     1.381   .     S
C47    C48     1.398   .     A
C47    O47     1.381   .     S
C48    O48     1.396   .     S
O43    Zn16    1.802   .     S
O44    Zn14    1.802   .     S
O45    Zn14    1.803   .     S
O46    Cu14    1.812   .     S
O47    Cu14    1.812   .     S
O48    Zn16    1.803   .     S
C49    C50     1.402   .     A
C49    C54     1.415   .     A
C49    O49     1.395   1_565 S
C50    C51     1.415   .     A
C50    O50     1.395   1_565 S
C51    C52     1.398   .     A
C51    O51     1.396   .     S
C52    C53     1.376   .     A
C52    O52     1.381   .     S
C53    C54     1.398   .     A
C53    O53     1.381   .     S
C54    O54     1.396   .     S
O49    C49     1.395   1_545 S
O49    Zn15    1.802   .     S
O50    C50     1.395   1_545 S
O50    Zn17    1.802   1_545 S
O51    Zn17    1.803   .     S
O52    Cu15    1.812   .     S
O53    Cu15    1.812   .     S
O54    Zn15    1.803   1_565 S
C55    C56     1.398   .     A
C55    C60     1.376   .     A
C55    O55     1.381   .     S
C56    C57     1.415   .     A
C56    O56     1.396   .     S
C57    C58     1.402   .     A
C57    O57     1.395   .     S
C58    C59     1.415   .     A
C58    O58     1.395   .     S
C59    C60     1.398   .     A
C59    O59     1.396   .     S
C60    O60     1.381   .     S
O55    Cu13    1.812   .     S
O56    Zn19    1.803   .     S
O57    Zn19    1.802   .     S
O58    Zn24    1.802   .     S
O59    Zn24    1.803   .     S
O60    Cu13    1.812   .     S
C61    C62     1.402   .     A
C61    C66     1.415   .     A
C61    O61     1.395   1_565 S
C62    C63     1.415   .     A
C62    O62     1.395   1_565 S
C63    C64     1.398   .     A
C63    O63     1.396   .     S
C64    C65     1.376   .     A
C64    O64     1.381   .     S
C65    C66     1.398   .     A
C65    O65     1.381   .     S
C66    O66     1.396   .     S
O61    C61     1.395   1_545 S
O61    Zn20    1.802   1_545 S
O62    C62     1.395   1_545 S
O62    Zn22    1.802   .     S
O63    Zn22    1.803   1_565 S
O64    Cu14    1.812   .     S
O65    Cu14    1.812   .     S
O66    Zn20    1.803   .     S
C67    C68     1.402   .     A
C67    C72     1.415   .     A
C67    O67     1.395   1_455 S
C68    C69     1.415   .     A
C68    O68     1.395   .     S
C69    C70     1.398   .     A
C69    O69     1.396   .     S
C70    C71     1.376   .     A
C70    O70     1.381   .     S
C71    C72     1.398   .     A
C71    O71     1.381   .     S
C72    O72     1.396   .     S
O67    C67     1.395   1_655 S
O67    Zn23    1.802   .     S
O68    Zn21    1.802   .     S
O69    Zn21    1.803   .     S
O70    Cu15    1.812   .     S
O71    Cu15    1.812   .     S
O72    Zn23    1.803   1_455 S
C73    C74     1.398   .     A
C73    C78     1.415   .     A
C73    O73     1.396   .     S
C74    C75     1.376   .     A
C74    O74     1.381   .     S
C75    C76     1.398   .     A
C75    O75     1.381   .     S
C76    C77     1.415   .     A
C76    O76     1.396   .     S
C77    C78     1.402   .     A
C77    O77     1.395   .     S
C78    O78     1.395   .     S
O73    Zn25    1.803   .     S
O74    Cu16    1.812   .     S
O75    Cu16    1.812   .     S
O76    Zn30    1.803   .     S
O77    Zn30    1.802   .     S
O78    Zn25    1.802   .     S
C79    C80     1.402   .     A
C79    C84     1.415   .     A
C79    O79     1.395   1_545 S
C80    C81     1.415   .     A
C80    O80     1.395   .     S
C81    C82     1.398   .     A
C81    O81     1.396   .     S
C82    C83     1.376   .     A
C82    O82     1.381   .     S
C83    C84     1.398   .     A
C83    O83     1.381   .     S
C84    O84     1.396   .     S
O79    C79     1.395   1_565 S
O79    Zn28    1.802   .     S
O80    Zn26    1.802   .     S
O81    Zn26    1.803   .     S
O82    Cu17    1.812   .     S
O83    Cu17    1.812   .     S
O84    Zn28    1.803   1_545 S
C85    C86     1.402   .     A
C85    C90     1.415   .     A
C85    O85     1.395   1_655 S
C86    C87     1.415   .     A
C86    O86     1.395   1_655 S
C87    C88     1.398   .     A
C87    O87     1.396   .     S
C88    C89     1.376   .     A
C88    O88     1.381   .     S
C89    C90     1.398   .     A
C89    O89     1.381   .     S
C90    O90     1.396   .     S
O85    C85     1.395   1_455 S
O85    Zn27    1.802   1_455 S
O86    C86     1.395   1_455 S
O86    Zn29    1.802   .     S
O87    Zn29    1.803   1_655 S
O88    Cu18    1.812   .     S
O89    Cu18    1.812   .     S
O90    Zn27    1.803   .     S
C91    C92     1.398   .     A
C91    C96     1.376   .     A
C91    O91     1.381   .     S
C92    C93     1.415   .     A
C92    O92     1.396   .     S
C93    C94     1.402   .     A
C93    O93     1.395   1_655 S
C94    C95     1.415   .     A
C94    O94     1.395   1_655 S
C95    C96     1.398   .     A
C95    O95     1.396   .     S
C96    O96     1.381   .     S
O91    Cu16    1.812   .     S
O92    Zn31    1.803   1_655 S
O93    C93     1.395   1_455 S
O93    Zn31    1.802   .     S
O94    C94     1.395   1_455 S
O94    Zn36    1.802   1_455 S
O95    Zn36    1.803   .     S
O96    Cu16    1.812   .     S
C97    C98     1.402   .     A
C97    C102    1.415   .     A
C97    O97     1.395   .     S
C98    C99     1.415   .     A
C98    O98     1.395   .     S
C99    C100    1.398   .     A
C99    O99     1.396   .     S
C100   C101    1.376   .     A
C100   O100    1.381   .     S
C101   C102    1.398   .     A
C101   O101    1.381   .     S
C102   O102    1.396   .     S
O97    Zn32    1.802   .     S
O98    Zn34    1.802   .     S
O99    Zn34    1.803   .     S
O100   Cu17    1.812   .     S
O101   Cu17    1.812   .     S
O102   Zn32    1.803   .     S
C103   C104    1.402   .     A
C103   C108    1.415   .     A
C103   O103    1.395   .     S
C104   C105    1.415   .     A
C104   O104    1.395   1_545 S
C105   C106    1.398   .     A
C105   O105    1.396   .     S
C106   C107    1.376   .     A
C106   O106    1.381   .     S
C107   C108    1.398   .     A
C107   O107    1.381   .     S
C108   O108    1.396   .     S
O103   Zn35    1.802   .     S
O104   C104    1.395   1_565 S
O104   Zn33    1.802   .     S
O105   Zn33    1.803   1_545 S
O106   Cu18    1.812   .     S
O107   Cu18    1.812   .     S
O108   Zn35    1.803   .     S
C109   C110    1.398   .     A
C109   C114    1.375   .     A
C109   O109    1.381   .     S
C110   C111    1.416   .     A
C110   O110    1.395   .     S
C111   C112    1.403   .     A
C111   O111    1.396   .     S
C112   C113    1.416   .     A
C112   O112    1.396   .     S
C113   C114    1.398   .     A
C113   O113    1.395   .     S
C114   O114    1.381   .     S
O109   Cu1     1.812   .     S
O110   Zn6     1.801   .     S
O111   Zn6     1.805   .     S
O112   Zn9     1.805   .     S
O113   Zn9     1.801   .     S
O114   Cu1     1.812   .     S
C115   C116    1.398   .     A
C115   C120    1.375   .     A
C115   O115    1.381   .     S
C116   C117    1.416   .     A
C116   O116    1.395   .     S
C117   C118    1.403   .     A
C117   O117    1.396   .     S
C118   C119    1.416   .     A
C118   O118    1.396   .     S
C119   C120    1.398   .     A
C119   O119    1.395   .     S
C120   O120    1.381   .     S
O115   Cu2     1.812   .     S
O116   Zn4     1.801   .     S
O117   Zn4     1.805   .     S
O118   Zn7     1.805   .     S
O119   Zn7     1.801   .     S
O120   Cu2     1.812   .     S
C121   C122    1.403   .     A
C121   C126    1.416   .     A
C121   O121    1.396   .     S
C122   C123    1.416   .     A
C122   O122    1.396   .     S
C123   C124    1.398   .     A
C123   O123    1.395   .     S
C124   C125    1.375   .     A
C124   O124    1.381   .     S
C125   C126    1.398   .     A
C125   O125    1.381   .     S
C126   O126    1.395   .     S
O121   Zn5     1.805   .     S
O122   Zn8     1.805   .     S
O123   Zn8     1.801   .     S
O124   Cu3     1.812   .     S
O125   Cu3     1.812   .     S
O126   Zn5     1.801   .     S
C127   C128    1.403   .     A
C127   C132    1.416   .     A
C127   O127    1.396   .     S
C128   C129    1.416   .     A
C128   O128    1.396   .     S
C129   C130    1.398   .     A
C129   O129    1.395   .     S
C130   C131    1.375   .     A
C130   O130    1.381   .     S
C131   C132    1.398   .     A
C131   O131    1.381   .     S
C132   O132    1.395   .     S
O127   Zn2     1.805   .     S
O128   Zn11    1.805   .     S
O129   Zn11    1.801   .     S
O130   Cu4     1.812   .     S
O131   Cu4     1.812   .     S
O132   Zn2     1.801   .     S
C133   C134    1.398   .     A
C133   C138    1.375   .     A
C133   O133    1.381   .     S
C134   C135    1.416   .     A
C134   O134    1.395   .     S
C135   C136    1.403   .     A
C135   O135    1.396   .     S
C136   C137    1.416   .     A
C136   O136    1.396   .     S
C137   C138    1.398   .     A
C137   O137    1.395   .     S
C138   O138    1.381   .     S
O133   Cu5     1.812   .     S
O134   Zn3     1.801   .     S
O135   Zn3     1.805   .     S
O136   Zn12    1.805   .     S
O137   Zn12    1.801   .     S
O138   Cu5     1.812   .     S
C139   C140    1.398   .     A
C139   C144    1.375   .     A
C139   O139    1.381   .     S
C140   C141    1.416   .     A
C140   O140    1.395   .     S
C141   C142    1.403   .     A
C141   O141    1.396   .     S
C142   C143    1.416   .     A
C142   O142    1.396   .     S
C143   C144    1.398   .     A
C143   O143    1.395   .     S
C144   O144    1.381   .     S
O139   Cu6     1.812   .     S
O140   Zn1     1.801   .     S
O141   Zn1     1.805   .     S
O142   Zn10    1.805   .     S
O143   Zn10    1.801   .     S
O144   Cu6     1.812   .     S
C145   C146    1.398   .     A
C145   C150    1.375   .     A
C145   O145    1.381   .     S
C146   C147    1.416   .     A
C146   O146    1.395   .     S
C147   C148    1.403   .     A
C147   O147    1.396   .     S
C148   C149    1.416   .     A
C148   O148    1.396   .     S
C149   C150    1.398   .     A
C149   O149    1.395   .     S
C150   O150    1.381   .     S
O145   Cu7     1.812   .     S
O146   Zn18    1.801   .     S
O147   Zn18    1.805   .     S
O148   Zn21    1.805   .     S
O149   Zn21    1.801   .     S
O150   Cu7     1.812   .     S
C151   C152    1.398   .     A
C151   C156    1.375   .     A
C151   O151    1.381   .     S
C152   C153    1.416   .     A
C152   O152    1.395   .     S
C153   C154    1.403   .     A
C153   O153    1.396   .     S
C154   C155    1.416   .     A
C154   O154    1.396   .     S
C155   C156    1.398   .     A
C155   O155    1.395   .     S
C156   O156    1.381   .     S
O151   Cu8     1.812   .     S
O152   Zn16    1.801   .     S
O153   Zn16    1.805   .     S
O154   Zn19    1.805   .     S
O155   Zn19    1.801   .     S
O156   Cu8     1.812   .     S
C157   C158    1.403   .     A
C157   C162    1.416   .     A
C157   O157    1.396   .     S
C158   C159    1.416   .     A
C158   O158    1.396   .     S
C159   C160    1.398   .     A
C159   O159    1.395   .     S
C160   C161    1.375   .     A
C160   O160    1.381   .     S
C161   C162    1.398   .     A
C161   O161    1.381   .     S
C162   O162    1.395   .     S
O157   Zn17    1.805   .     S
O158   Zn20    1.805   .     S
O159   Zn20    1.801   .     S
O160   Cu9     1.812   1_565 S
O161   Cu9     1.812   1_565 S
O162   Zn17    1.801   .     S
C163   C164    1.403   .     A
C163   C168    1.416   .     A
C163   O163    1.396   .     S
C164   C165    1.416   .     A
C164   O164    1.396   .     S
C165   C166    1.398   .     A
C165   O165    1.395   .     S
C166   C167    1.375   .     A
C166   O166    1.381   .     S
C167   C168    1.398   .     A
C167   O167    1.381   .     S
C168   O168    1.395   .     S
O163   Zn14    1.805   .     S
O164   Zn23    1.805   .     S
O165   Zn23    1.801   .     S
O166   Cu3     1.812   .     S
O167   Cu3     1.812   .     S
O168   Zn14    1.801   .     S
C169   C170    1.398   .     A
C169   C174    1.375   .     A
C169   O169    1.381   .     S
C170   C171    1.416   .     A
C170   O170    1.395   .     S
C171   C172    1.403   .     A
C171   O171    1.396   .     S
C172   C173    1.416   .     A
C172   O172    1.396   .     S
C173   C174    1.398   .     A
C173   O173    1.395   .     S
C174   O174    1.381   .     S
O169   Cu1     1.812   .     S
O170   Zn15    1.801   .     S
O171   Zn15    1.805   .     S
O172   Zn24    1.805   .     S
O173   Zn24    1.801   .     S
O174   Cu1     1.812   .     S
C175   C176    1.398   .     A
C175   C180    1.375   .     A
C175   O175    1.381   .     S
C176   C177    1.416   .     A
C176   O176    1.395   .     S
C177   C178    1.403   .     A
C177   O177    1.396   .     S
C178   C179    1.416   .     A
C178   O178    1.396   .     S
C179   C180    1.398   .     A
C179   O179    1.395   .     S
C180   O180    1.381   .     S
O175   Cu2     1.812   .     S
O176   Zn13    1.801   .     S
O177   Zn13    1.805   .     S
O178   Zn22    1.805   .     S
O179   Zn22    1.801   .     S
O180   Cu2     1.812   .     S
C181   C182    1.398   .     A
C181   C186    1.375   .     A
C181   O181    1.381   .     S
C182   C183    1.416   .     A
C182   O182    1.395   .     S
C183   C184    1.403   .     A
C183   O183    1.396   .     S
C184   C185    1.416   .     A
C184   O184    1.396   .     S
C185   C186    1.398   .     A
C185   O185    1.395   .     S
C186   O186    1.381   .     S
O181   Cu5     1.812   .     S
O182   Zn30    1.801   .     S
O183   Zn30    1.805   .     S
O184   Zn33    1.805   .     S
O185   Zn33    1.801   .     S
O186   Cu5     1.812   .     S
C187   C188    1.398   .     A
C187   C192    1.375   .     A
C187   O187    1.381   .     S
C188   C189    1.416   .     A
C188   O188    1.395   .     S
C189   C190    1.403   .     A
C189   O189    1.396   .     S
C190   C191    1.416   .     A
C190   O190    1.396   .     S
C191   C192    1.398   .     A
C191   O191    1.395   .     S
C192   O192    1.381   .     S
O187   Cu6     1.812   .     S
O188   Zn28    1.801   .     S
O189   Zn28    1.805   .     S
O190   Zn31    1.805   .     S
O191   Zn31    1.801   .     S
O192   Cu6     1.812   .     S
C193   C194    1.403   .     A
C193   C198    1.416   .     A
C193   O193    1.396   .     S
C194   C195    1.416   .     A
C194   O194    1.396   .     S
C195   C196    1.398   .     A
C195   O195    1.395   .     S
C196   C197    1.375   .     A
C196   O196    1.381   .     S
C197   C198    1.398   .     A
C197   O197    1.381   .     S
C198   O198    1.395   .     S
O193   Zn29    1.805   .     S
O194   Zn32    1.805   .     S
O195   Zn32    1.801   .     S
O196   Cu4     1.812   .     S
O197   Cu4     1.812   .     S
O198   Zn29    1.801   .     S
C199   C200    1.403   .     A
C199   C204    1.416   .     A
C199   O199    1.396   .     S
C200   C201    1.416   .     A
C200   O200    1.396   .     S
C201   C202    1.398   .     A
C201   O201    1.395   .     S
C202   C203    1.375   .     A
C202   O202    1.381   .     S
C203   C204    1.398   .     A
C203   O203    1.381   .     S
C204   O204    1.395   .     S
O199   Zn26    1.805   .     S
O200   Zn35    1.805   .     S
O201   Zn35    1.801   .     S
O202   Cu9     1.812   .     S
O203   Cu9     1.812   .     S
O204   Zn26    1.801   .     S
C205   C206    1.398   .     A
C205   C210    1.375   .     A
C205   O205    1.381   .     S
C206   C207    1.416   .     A
C206   O206    1.395   .     S
C207   C208    1.403   .     A
C207   O207    1.396   .     S
C208   C209    1.416   .     A
C208   O208    1.396   .     S
C209   C210    1.398   .     A
C209   O209    1.395   .     S
C210   O210    1.381   .     S
O205   Cu7     1.812   1_655 S
O206   Zn27    1.801   .     S
O207   Zn27    1.805   .     S
O208   Zn36    1.805   .     S
O209   Zn36    1.801   .     S
O210   Cu7     1.812   1_655 S
C211   C212    1.398   .     A
C211   C216    1.375   .     A
C211   O211    1.381   .     S
C212   C213    1.416   .     A
C212   O212    1.395   .     S
C213   C214    1.403   .     A
C213   O213    1.396   .     S
C214   C215    1.416   .     A
C214   O214    1.396   .     S
C215   C216    1.398   .     A
C215   O215    1.395   .     S
C216   O216    1.381   .     S
O211   Cu8     1.812   .     S
O212   Zn25    1.801   .     S
O213   Zn25    1.805   .     S
O214   Zn34    1.805   .     S
O215   Zn34    1.801   .     S
O216   Cu8     1.812   .     S
Cu7    O210    1.812   1_455 S
Cu7    O205    1.812   1_455 S
Cu9    O161    1.812   1_545 S
Cu9    O160    1.812   1_545 S
Cu10   O24     1.812   1_544 S
Cu10   O2      1.812   1_544 S
Cu11   O11     1.812   1_455 S
Cu11   O29     1.812   1_455 S
Cu11   O28     1.812   1_554 S
Cu11   O10     1.812   1_554 S
Cu12   O17     1.812   1_554 S
Cu12   O35     1.812   1_554 S
Zn13   O37     1.803   1_655 S
Zn15   O54     1.803   1_545 S
Zn17   O50     1.802   1_565 S
Zn20   O61     1.802   1_565 S
Zn22   O63     1.803   1_545 S
Zn23   O72     1.803   1_655 S
Zn27   O85     1.802   1_655 S
Zn28   O84     1.803   1_565 S
Zn29   O87     1.803   1_455 S
Zn31   O92     1.803   1_455 S
Zn33   O105    1.803   1_565 S
Zn36   O94     1.802   1_655 S
