data_nta-TN_O-Zntet
_audit_creation_date              2021-11-06
_audit_creation_method            'Materials Studio'
_symmetry_space_group_name_H-M    'P1'
_symmetry_Int_Tables_number       1
_symmetry_cell_setting            triclinic
loop_
_symmetry_equiv_pos_as_xyz
  x,y,z
_cell_length_a                    76.0357
_cell_length_b                    76.0233
_cell_length_c                    100.3486
_cell_angle_alpha                 89.9504
_cell_angle_beta                  90.0818
_cell_angle_gamma                 119.9792
loop_
_atom_site_label
_atom_site_type_symbol
_atom_site_fract_x
_atom_site_fract_y
_atom_site_fract_z
_atom_site_U_iso_or_equiv
_atom_site_adp_type
_atom_site_occupancy
C1     C     0.38084   0.01481   0.01184   0.00000  Uiso   1.00
C2     C     0.40139   0.02328   0.01617   0.00000  Uiso   1.00
C3     C     0.41295   0.01404   0.01231   0.00000  Uiso   1.00
C4     C     0.40473   0.99770   0.00301   0.00000  Uiso   1.00
C5     C     0.38394   0.98864   0.99911   0.00000  Uiso   1.00
C6     C     0.37201   0.99729   0.00340   0.00000  Uiso   1.00
C7     C     0.41771   0.99094   0.99779   0.00000  Uiso   1.00
C8     C     0.43743   0.99840   0.00258   0.00000  Uiso   1.00
C9     C     0.44481   0.01307   0.01278   0.00000  Uiso   1.00
C10    C     0.43265   0.02063   0.01756   0.00000  Uiso   1.00
C11    C     0.36969   0.02421   0.01618   0.00000  Uiso   1.00
C12    C     0.37842   0.04157   0.02417   0.00000  Uiso   1.00
C13    C     0.39885   0.05029   0.02801   0.00000  Uiso   1.00
C14    C     0.41012   0.04135   0.02391   0.00000  Uiso   1.00
C15    C     0.35148   0.98806   0.99904   0.00000  Uiso   1.00
C16    C     0.34269   0.97064   0.99110   0.00000  Uiso   1.00
C17    C     0.35425   0.96176   0.98728   0.00000  Uiso   1.00
C18    C     0.37446   0.97056   0.99137   0.00000  Uiso   1.00
C19    C     0.34538   0.94404   0.97944   0.00000  Uiso   1.00
C20    C     0.32513   0.93531   0.97543   0.00000  Uiso   1.00
C21    C     0.31350   0.94418   0.97932   0.00000  Uiso   1.00
C22    C     0.32227   0.96178   0.98708   0.00000  Uiso   1.00
C23    C     0.46449   0.02022   0.01790   0.00000  Uiso   1.00
C24    C     0.47650   0.01277   0.01268   0.00000  Uiso   1.00
C25    C     0.46938   0.99860   0.00265   0.00000  Uiso   1.00
C26    C     0.44990   0.99119   0.99744   0.00000  Uiso   1.00
H1     H     0.41312   0.98019   0.98973   0.00000  Uiso   1.00
H2     H     0.43886   0.03134   0.02565   0.00000  Uiso   1.00
H3     H     0.35407   0.01855   0.01354   0.00000  Uiso   1.00
H4     H     0.42595   0.04933   0.02661   0.00000  Uiso   1.00
H5     H     0.34164   0.99387   0.00165   0.00000  Uiso   1.00
H6     H     0.38219   0.96247   0.98869   0.00000  Uiso   1.00
H7     H     0.35413   0.93703   0.97641   0.00000  Uiso   1.00
O1     O     0.31625   0.91783   0.96757   0.00000  Uiso   1.00
O2     O     0.29322   0.93523   0.97538   0.00000  Uiso   1.00
H8     H     0.31313   0.96842   0.98999   0.00000  Uiso   1.00
H9     H     0.47050   0.03150   0.02576   0.00000  Uiso   1.00
O3     O     0.49597   0.01906   0.01711   0.00000  Uiso   1.00
O4     O     0.48251   0.99229   0.99819   0.00000  Uiso   1.00
H10    H     0.44456   0.97991   0.98959   0.00000  Uiso   1.00
C27    C     0.40782   0.06796   0.03590   0.00000  Uiso   1.00
C28    C     0.39641   0.07677   0.03996   0.00000  Uiso   1.00
C29    C     0.37590   0.06802   0.03609   0.00000  Uiso   1.00
C30    C     0.36699   0.05053   0.02824   0.00000  Uiso   1.00
H11    H     0.42358   0.07485   0.03894   0.00000  Uiso   1.00
O5     O     0.40513   0.09420   0.04787   0.00000  Uiso   1.00
O6     O     0.36466   0.07699   0.04015   0.00000  Uiso   1.00
H12    H     0.35122   0.04401   0.02533   0.00000  Uiso   1.00
C31    C     0.99791   0.40450   0.01216   0.00000  Uiso   1.00
C32    C     0.01433   0.41276   0.00293   0.00000  Uiso   1.00
C33    C     0.02358   0.40120   0.99908   0.00000  Uiso   1.00
C34    C     0.01512   0.38065   0.00342   0.00000  Uiso   1.00
C35    C     0.99765   0.37185   0.01188   0.00000  Uiso   1.00
C36    C     0.98886   0.38372   0.01604   0.00000  Uiso   1.00
C37    C     0.02442   0.36945   0.99900   0.00000  Uiso   1.00
C38    C     0.04179   0.37818   0.99103   0.00000  Uiso   1.00
C39    C     0.05055   0.39863   0.98724   0.00000  Uiso   1.00
C40    C     0.04164   0.40992   0.99135   0.00000  Uiso   1.00
C41    C     0.99111   0.41745   0.01735   0.00000  Uiso   1.00
C42    C     0.99860   0.43720   0.01261   0.00000  Uiso   1.00
C43    C     0.01335   0.44462   0.00246   0.00000  Uiso   1.00
C44    C     0.02095   0.43248   0.99770   0.00000  Uiso   1.00
C45    C     0.97067   0.37418   0.02365   0.00000  Uiso   1.00
C46    C     0.96195   0.35401   0.02781   0.00000  Uiso   1.00
C47    C     0.97110   0.34258   0.02425   0.00000  Uiso   1.00
C48    C     0.98863   0.35143   0.01643   0.00000  Uiso   1.00
C49    C     0.96239   0.32224   0.02841   0.00000  Uiso   1.00
C50    C     0.94466   0.31339   0.03602   0.00000  Uiso   1.00
C51    C     0.93548   0.32486   0.03961   0.00000  Uiso   1.00
C52    C     0.94408   0.34506   0.03549   0.00000  Uiso   1.00
C53    C     0.06822   0.40759   0.97936   0.00000  Uiso   1.00
C54    C     0.07699   0.39616   0.97527   0.00000  Uiso   1.00
C55    C     0.06821   0.37563   0.97910   0.00000  Uiso   1.00
C56    C     0.05071   0.36672   0.98693   0.00000  Uiso   1.00
H13    H     0.01861   0.35376   0.00151   0.00000  Uiso   1.00
H14    H     0.04963   0.42575   0.98866   0.00000  Uiso   1.00
H15    H     0.98030   0.41282   0.02538   0.00000  Uiso   1.00
H16    H     0.03173   0.43874   0.98967   0.00000  Uiso   1.00
H17    H     0.96243   0.38184   0.02616   0.00000  Uiso   1.00
H18    H     0.99474   0.34175   0.01410   0.00000  Uiso   1.00
H19    H     0.96925   0.31321   0.02572   0.00000  Uiso   1.00
O7     O     0.93588   0.29319   0.04011   0.00000  Uiso   1.00
O8     O     0.91782   0.31589   0.04728   0.00000  Uiso   1.00
H20    H     0.93686   0.35369   0.03832   0.00000  Uiso   1.00
H21    H     0.07513   0.42336   0.97634   0.00000  Uiso   1.00
O9     O     0.09443   0.40487   0.96737   0.00000  Uiso   1.00
O10    O     0.07716   0.36437   0.97503   0.00000  Uiso   1.00
H22    H     0.04417   0.35093   0.98982   0.00000  Uiso   1.00
C57    C     0.02054   0.46433   0.99738   0.00000  Uiso   1.00
C58    C     0.01306   0.47632   0.00259   0.00000  Uiso   1.00
C59    C     0.99882   0.46916   0.01257   0.00000  Uiso   1.00
C60    C     0.99137   0.44965   0.01773   0.00000  Uiso   1.00
H23    H     0.03187   0.47037   0.98956   0.00000  Uiso   1.00
O11    O     0.01939   0.49581   0.99819   0.00000  Uiso   1.00
O12    O     0.99249   0.48229   0.01702   0.00000  Uiso   1.00
H24    H     0.98004   0.44428   0.02555   0.00000  Uiso   1.00
C61    C     0.59855   0.60730   0.00357   0.00000  Uiso   1.00
C62    C     0.60747   0.59838   0.01166   0.00000  Uiso   1.00
C63    C     0.62836   0.61001   0.01537   0.00000  Uiso   1.00
C64    C     0.63981   0.63092   0.01184   0.00000  Uiso   1.00
C65    C     0.63110   0.63962   0.00339   0.00000  Uiso   1.00
C66    C     0.61019   0.62818   0.99986   0.00000  Uiso   1.00
C67    C     0.65964   0.64278   0.01720   0.00000  Uiso   1.00
C68    C     0.66885   0.63405   0.02462   0.00000  Uiso   1.00
C69    C     0.65829   0.61301   0.02697   0.00000  Uiso   1.00
C70    C     0.63837   0.60125   0.02238   0.00000  Uiso   1.00
C71    C     0.57826   0.59480   0.99909   0.00000  Uiso   1.00
C72    C     0.56649   0.57467   0.00323   0.00000  Uiso   1.00
C73    C     0.57485   0.56632   0.01200   0.00000  Uiso   1.00
C74    C     0.59498   0.57809   0.01615   0.00000  Uiso   1.00
C75    C     0.60143   0.63819   0.99285   0.00000  Uiso   1.00
C76    C     0.61320   0.65811   0.98826   0.00000  Uiso   1.00
C77    C     0.63424   0.66866   0.99060   0.00000  Uiso   1.00
C78    C     0.64297   0.65945   0.99803   0.00000  Uiso   1.00
C79    C     0.64629   0.68845   0.98561   0.00000  Uiso   1.00
C80    C     0.63736   0.69774   0.97849   0.00000  Uiso   1.00
C81    C     0.61620   0.68730   0.97632   0.00000  Uiso   1.00
C82    C     0.60422   0.66756   0.98116   0.00000  Uiso   1.00
C83    C     0.66774   0.60402   0.03406   0.00000  Uiso   1.00
C84    C     0.68749   0.61600   0.03889   0.00000  Uiso   1.00
C85    C     0.69794   0.63716   0.03673   0.00000  Uiso   1.00
C86    C     0.68865   0.64610   0.02961   0.00000  Uiso   1.00
H25    H     0.66814   0.65906   0.01609   0.00000  Uiso   1.00
H26    H     0.63124   0.58517   0.02420   0.00000  Uiso   1.00
H27    H     0.57121   0.60009   0.99207   0.00000  Uiso   1.00
H28    H     0.60027   0.57104   0.02317   0.00000  Uiso   1.00
H29    H     0.58535   0.63107   0.99102   0.00000  Uiso   1.00
H30    H     0.65925   0.66794  -0.00086   0.00000  Uiso   1.00
H31    H     0.66255   0.69673   0.98730   0.00000  Uiso   1.00
O13    O     0.64921   0.71739   0.97353   0.00000  Uiso   1.00
O14    O     0.60741   0.69681   0.96930   0.00000  Uiso   1.00
H32    H     0.58800   0.65965   0.97931   0.00000  Uiso   1.00
H33    H     0.65982   0.58781   0.03591   0.00000  Uiso   1.00
O15    O     0.69700   0.60720   0.04591   0.00000  Uiso   1.00
O16    O     0.71760   0.64900   0.04168   0.00000  Uiso   1.00
H34    H     0.69694   0.66236   0.02792   0.00000  Uiso   1.00
C87    C     0.56289   0.54611   0.01639   0.00000  Uiso   1.00
C88    C     0.54290   0.53461   0.01191   0.00000  Uiso   1.00
C89    C     0.53479   0.54271   0.00331   0.00000  Uiso   1.00
C90    C     0.54628   0.56270   0.99883   0.00000  Uiso   1.00
H35    H     0.56899   0.53935   0.02313   0.00000  Uiso   1.00
O17    O     0.53023   0.51471   0.01572   0.00000  Uiso   1.00
O18    O     0.51489   0.53003   0.99949   0.00000  Uiso   1.00
H36    H     0.53951   0.56879   0.99209   0.00000  Uiso   1.00
C91    C     0.60711   0.01371   0.01222   0.00000  Uiso   1.00
C92    C     0.59889   0.99737   0.00291   0.00000  Uiso   1.00
C93    C     0.61046   0.98815   0.99904   0.00000  Uiso   1.00
C94    C     0.63101   0.99660   0.00338   0.00000  Uiso   1.00
C95    C     0.63983   0.01413   0.01182   0.00000  Uiso   1.00
C96    C     0.62790   0.02277   0.01611   0.00000  Uiso   1.00
C97    C     0.64216   0.98720   0.99905   0.00000  Uiso   1.00
C98    C     0.63343   0.96985   0.99105   0.00000  Uiso   1.00
C99    C     0.61301   0.96115   0.98719   0.00000  Uiso   1.00
C100   C     0.60174   0.97008   0.99128   0.00000  Uiso   1.00
C101   C     0.59413   0.02046   0.01744   0.00000  Uiso   1.00
C102   C     0.57440   0.01299   0.01265   0.00000  Uiso   1.00
C103   C     0.56702   0.99833   0.00245   0.00000  Uiso   1.00
C104   C     0.57919   0.99078   0.99766   0.00000  Uiso   1.00
C105   C     0.63737   0.04084   0.02386   0.00000  Uiso   1.00
C106   C     0.65759   0.04965   0.02794   0.00000  Uiso   1.00
C107   C     0.66916   0.04078   0.02411   0.00000  Uiso   1.00
C108   C     0.66037   0.02337   0.01616   0.00000  Uiso   1.00
C109   C     0.68958   0.04966   0.02812   0.00000  Uiso   1.00
C110   C     0.69835   0.06725   0.03588   0.00000  Uiso   1.00
C111   C     0.68671   0.07610   0.03979   0.00000  Uiso   1.00
C112   C     0.66645   0.06736   0.03579   0.00000  Uiso   1.00
C113   C     0.60405   0.94349   0.97929   0.00000  Uiso   1.00
C114   C     0.61545   0.93468   0.97523   0.00000  Uiso   1.00
C115   C     0.63596   0.94341   0.97912   0.00000  Uiso   1.00
C116   C     0.64486   0.96089   0.98698   0.00000  Uiso   1.00
H37    H     0.65776   0.99283   0.00171   0.00000  Uiso   1.00
H38    H     0.58592   0.96211   0.98857   0.00000  Uiso   1.00
H39    H     0.59871   0.03121   0.02550   0.00000  Uiso   1.00
H40    H     0.57297   0.98007   0.98957   0.00000  Uiso   1.00
H41    H     0.62964   0.04893   0.02654   0.00000  Uiso   1.00
H42    H     0.67022   0.01758   0.01355   0.00000  Uiso   1.00
H43    H     0.69873   0.04303   0.02521   0.00000  Uiso   1.00
O19    O     0.71864   0.07622   0.03981   0.00000  Uiso   1.00
O20    O     0.69558   0.09358   0.04766   0.00000  Uiso   1.00
H44    H     0.65770   0.07437   0.03883   0.00000  Uiso   1.00
H45    H     0.58830   0.93661   0.97624   0.00000  Uiso   1.00
O21    O     0.60674   0.91725   0.96731   0.00000  Uiso   1.00
O22    O     0.64720   0.93443   0.97506   0.00000  Uiso   1.00
H46    H     0.66063   0.96739   0.98990   0.00000  Uiso   1.00
C117   C     0.54734   0.99117   0.99733   0.00000  Uiso   1.00
C118   C     0.53532   0.99861   0.00256   0.00000  Uiso   1.00
C119   C     0.54244   0.01278   0.01259   0.00000  Uiso   1.00
C120   C     0.56193   0.02020   0.01779   0.00000  Uiso   1.00
H47    H     0.54133   0.97989   0.98947   0.00000  Uiso   1.00
O23    O     0.51585   0.99231   0.99814   0.00000  Uiso   1.00
O24    O     0.52931   0.01908   0.01706   0.00000  Uiso   1.00
H48    H     0.56727   0.03148   0.02565   0.00000  Uiso   1.00
C121   C     0.99675   0.63078   0.01183   0.00000  Uiso   1.00
C122   C     0.98830   0.61023   0.01616   0.00000  Uiso   1.00
C123   C     0.99756   0.59868   0.01232   0.00000  Uiso   1.00
C124   C     0.01395   0.60693   0.00308   0.00000  Uiso   1.00
C125   C     0.02300   0.62771   0.99918   0.00000  Uiso   1.00
C126   C     0.01424   0.63958   0.00337   0.00000  Uiso   1.00
C127   C     0.02076   0.59397   0.99789   0.00000  Uiso   1.00
C128   C     0.01328   0.57423   0.00264   0.00000  Uiso   1.00
C129   C     0.99854   0.56682   0.01280   0.00000  Uiso   1.00
C130   C     0.99095   0.57896   0.01756   0.00000  Uiso   1.00
C131   C     0.98742   0.64196   0.01621   0.00000  Uiso   1.00
C132   C     0.97005   0.63323   0.02419   0.00000  Uiso   1.00
C133   C     0.96131   0.61278   0.02800   0.00000  Uiso   1.00
C134   C     0.97023   0.60150   0.02390   0.00000  Uiso   1.00
C135   C     0.02331   0.66004   0.99888   0.00000  Uiso   1.00
C136   C     0.04081   0.66887   0.99102   0.00000  Uiso   1.00
C137   C     0.04989   0.65741   0.98740   0.00000  Uiso   1.00
C138   C     0.04116   0.63723   0.99154   0.00000  Uiso   1.00
C139   C     0.06772   0.66634   0.97968   0.00000  Uiso   1.00
C140   C     0.07635   0.68654   0.97559   0.00000  Uiso   1.00
C141   C     0.06725   0.69806   0.97925   0.00000  Uiso   1.00
C142   C     0.04955   0.68923   0.98690   0.00000  Uiso   1.00
C143   C     0.99137   0.54712   0.01789   0.00000  Uiso   1.00
C144   C     0.99885   0.53512   0.01269   0.00000  Uiso   1.00
C145   C     0.01308   0.54228   0.00271   0.00000  Uiso   1.00
C146   C     0.02053   0.56178   0.99753   0.00000  Uiso   1.00
H49    H     0.03156   0.59859   0.98985   0.00000  Uiso   1.00
H50    H     0.98018   0.57272   0.02560   0.00000  Uiso   1.00
H51    H     0.99318   0.65763   0.01367   0.00000  Uiso   1.00
H52    H     0.96225   0.58568   0.02659   0.00000  Uiso   1.00
H53    H     0.01728   0.66976   0.00128   0.00000  Uiso   1.00
H54    H     0.04936   0.62956   0.98899   0.00000  Uiso   1.00
H55    H     0.07489   0.65767   0.97680   0.00000  Uiso   1.00
O25    O     0.09396   0.69550   0.96787   0.00000  Uiso   1.00
O26    O     0.07607   0.71828   0.97520   0.00000  Uiso   1.00
H56    H     0.04275   0.69829   0.98965   0.00000  Uiso   1.00
H57    H     0.98003   0.54108   0.02571   0.00000  Uiso   1.00
O27    O     0.99252   0.51564   0.01709   0.00000  Uiso   1.00
O28    O     0.01941   0.52916   0.99826   0.00000  Uiso   1.00
H58    H     0.03185   0.56715   0.98971   0.00000  Uiso   1.00
C147   C     0.94365   0.60382   0.03588   0.00000  Uiso   1.00
C148   C     0.93486   0.61524   0.03996   0.00000  Uiso   1.00
C149   C     0.94361   0.63576   0.03611   0.00000  Uiso   1.00
C150   C     0.96112   0.64468   0.02827   0.00000  Uiso   1.00
H59    H     0.93674   0.58806   0.03890   0.00000  Uiso   1.00
O29    O     0.91743   0.60653   0.04786   0.00000  Uiso   1.00
O30    O     0.93466   0.64702   0.04018   0.00000  Uiso   1.00
H60    H     0.96764   0.66046   0.02538   0.00000  Uiso   1.00
C151   C     0.37203   0.38051   0.00339   0.00000  Uiso   1.00
C152   C     0.38347   0.40143   0.99986   0.00000  Uiso   1.00
C153   C     0.40435   0.41306   0.00358   0.00000  Uiso   1.00
C154   C     0.41327   0.40415   0.01168   0.00000  Uiso   1.00
C155   C     0.40164   0.38327   0.01539   0.00000  Uiso   1.00
C156   C     0.38073   0.37181   0.01184   0.00000  Uiso   1.00
C157   C     0.43357   0.41665   0.01616   0.00000  Uiso   1.00
C158   C     0.44534   0.43678   0.01200   0.00000  Uiso   1.00
C159   C     0.43697   0.44512   0.00323   0.00000  Uiso   1.00
C160   C     0.41684   0.43335   0.99909   0.00000  Uiso   1.00
C161   C     0.35221   0.36864   0.99801   0.00000  Uiso   1.00
C162   C     0.34299   0.37737   0.99059   0.00000  Uiso   1.00
C163   C     0.35353   0.39841   0.98827   0.00000  Uiso   1.00
C164   C     0.37345   0.41019   0.99287   0.00000  Uiso   1.00
C165   C     0.36886   0.35198   0.01719   0.00000  Uiso   1.00
C166   C     0.37759   0.34278   0.02463   0.00000  Uiso   1.00
C167   C     0.39862   0.35334   0.02700   0.00000  Uiso   1.00
C168   C     0.41039   0.37327   0.02242   0.00000  Uiso   1.00
C169   C     0.40760   0.34389   0.03412   0.00000  Uiso   1.00
C170   C     0.39562   0.32415   0.03893   0.00000  Uiso   1.00
C171   C     0.37447   0.31368   0.03673   0.00000  Uiso   1.00
C172   C     0.36553   0.32297   0.02960   0.00000  Uiso   1.00
C173   C     0.44893   0.46532   0.99883   0.00000  Uiso   1.00
C174   C     0.46892   0.47683   0.00331   0.00000  Uiso   1.00
C175   C     0.47704   0.46873   0.01191   0.00000  Uiso   1.00
C176   C     0.46555   0.44874   0.01639   0.00000  Uiso   1.00
H61    H     0.44062   0.41136   0.02317   0.00000  Uiso   1.00
H62    H     0.41154   0.44038   0.99206   0.00000  Uiso   1.00
H63    H     0.34372   0.35236  -0.00089   0.00000  Uiso   1.00
H64    H     0.38057   0.42627   0.99105   0.00000  Uiso   1.00
H65    H     0.35259   0.34347   0.01606   0.00000  Uiso   1.00
H66    H     0.42646   0.38040   0.02427   0.00000  Uiso   1.00
H67    H     0.42380   0.35182   0.03599   0.00000  Uiso   1.00
O31    O     0.40440   0.31463   0.04596   0.00000  Uiso   1.00
O32    O     0.36262   0.29402   0.04167   0.00000  Uiso   1.00
H68    H     0.34928   0.31468   0.02789   0.00000  Uiso   1.00
H69    H     0.44283   0.47209   0.99209   0.00000  Uiso   1.00
O33    O     0.48160   0.49673   0.99949   0.00000  Uiso   1.00
O34    O     0.49694   0.48141   0.01571   0.00000  Uiso   1.00
H70    H     0.47232   0.44266   0.02313   0.00000  Uiso   1.00
C177   C     0.34407   0.40740   0.98118   0.00000  Uiso   1.00
C178   C     0.32434   0.39542   0.97634   0.00000  Uiso   1.00
C179   C     0.31390   0.37425   0.97849   0.00000  Uiso   1.00
C180   C     0.32320   0.36531   0.98559   0.00000  Uiso   1.00
H71    H     0.35198   0.42362   0.97934   0.00000  Uiso   1.00
O35    O     0.31481   0.40421   0.96933   0.00000  Uiso   1.00
O36    O     0.29424   0.36240   0.97352   0.00000  Uiso   1.00
H72    H     0.31493   0.34906   0.98727   0.00000  Uiso   1.00
C181   C     0.04750   0.34814   0.34516   0.00000  Uiso   1.00
C182   C     0.06804   0.35658   0.34952   0.00000  Uiso   1.00
C183   C     0.07959   0.34733   0.34565   0.00000  Uiso   1.00
C184   C     0.07138   0.33102   0.33634   0.00000  Uiso   1.00
C185   C     0.05060   0.32196   0.33244   0.00000  Uiso   1.00
C186   C     0.03868   0.33063   0.33672   0.00000  Uiso   1.00
C187   C     0.08437   0.32428   0.33111   0.00000  Uiso   1.00
C188   C     0.10409   0.33172   0.33590   0.00000  Uiso   1.00
C189   C     0.11145   0.34636   0.34613   0.00000  Uiso   1.00
C190   C     0.09928   0.35390   0.35092   0.00000  Uiso   1.00
C191   C     0.03635   0.35754   0.34950   0.00000  Uiso   1.00
C192   C     0.04509   0.37489   0.35750   0.00000  Uiso   1.00
C193   C     0.06550   0.38358   0.36137   0.00000  Uiso   1.00
C194   C     0.07677   0.37463   0.35728   0.00000  Uiso   1.00
C195   C     0.01815   0.32142   0.33234   0.00000  Uiso   1.00
C196   C     0.00936   0.30399   0.32441   0.00000  Uiso   1.00
C197   C     0.02090   0.29507   0.32063   0.00000  Uiso   1.00
C198   C     0.04111   0.30387   0.32472   0.00000  Uiso   1.00
C199   C     0.01201   0.27732   0.31282   0.00000  Uiso   1.00
C200   C     0.99176   0.26860   0.30880   0.00000  Uiso   1.00
C201   C     0.98017   0.27754   0.31263   0.00000  Uiso   1.00
C202   C     0.98896   0.29516   0.32036   0.00000  Uiso   1.00
C203   C     0.13112   0.35348   0.35126   0.00000  Uiso   1.00
C204   C     0.14314   0.34606   0.34602   0.00000  Uiso   1.00
C205   C     0.13604   0.33194   0.33596   0.00000  Uiso   1.00
C206   C     0.11656   0.32454   0.33075   0.00000  Uiso   1.00
H73    H     0.07978   0.31355   0.32303   0.00000  Uiso   1.00
H74    H     0.10548   0.36459   0.35902   0.00000  Uiso   1.00
H75    H     0.02075   0.35191   0.34684   0.00000  Uiso   1.00
H76    H     0.09259   0.38259   0.36000   0.00000  Uiso   1.00
H77    H     0.00833   0.32726   0.33492   0.00000  Uiso   1.00
H78    H     0.04883   0.29575   0.32206   0.00000  Uiso   1.00
H79    H     0.02074   0.27026   0.30982   0.00000  Uiso   1.00
O37    O     0.98285   0.25107   0.30098   0.00000  Uiso   1.00
O38    O     0.95990   0.26863   0.30866   0.00000  Uiso   1.00
H80    H     0.97984   0.30184   0.32323   0.00000  Uiso   1.00
H81    H     0.13711   0.36474   0.35913   0.00000  Uiso   1.00
O39    O     0.16259   0.35233   0.35046   0.00000  Uiso   1.00
O40    O     0.14919   0.32565   0.33148   0.00000  Uiso   1.00
H82    H     0.11124   0.31329   0.32287   0.00000  Uiso   1.00
C207   C     0.07447   0.40123   0.36927   0.00000  Uiso   1.00
C208   C     0.06307   0.41006   0.37332   0.00000  Uiso   1.00
C209   C     0.04257   0.40134   0.36943   0.00000  Uiso   1.00
C210   C     0.03366   0.38386   0.36157   0.00000  Uiso   1.00
H83    H     0.09021   0.40811   0.37233   0.00000  Uiso   1.00
O41    O     0.07178   0.42749   0.38124   0.00000  Uiso   1.00
O42    O     0.03133   0.41033   0.37348   0.00000  Uiso   1.00
H84    H     0.01790   0.37737   0.35864   0.00000  Uiso   1.00
C211   C     0.66454   0.73779   0.34550   0.00000  Uiso   1.00
C212   C     0.68091   0.74603   0.33624   0.00000  Uiso   1.00
C213   C     0.69017   0.73448   0.33240   0.00000  Uiso   1.00
C214   C     0.68175   0.71394   0.33676   0.00000  Uiso   1.00
C215   C     0.66427   0.70514   0.34522   0.00000  Uiso   1.00
C216   C     0.65549   0.71701   0.34939   0.00000  Uiso   1.00
C217   C     0.69108   0.70276   0.33238   0.00000  Uiso   1.00
C218   C     0.70844   0.71149   0.32439   0.00000  Uiso   1.00
C219   C     0.71716   0.73192   0.32056   0.00000  Uiso   1.00
C220   C     0.70822   0.74320   0.32465   0.00000  Uiso   1.00
C221   C     0.65776   0.75075   0.35071   0.00000  Uiso   1.00
C222   C     0.66523   0.77049   0.34594   0.00000  Uiso   1.00
C223   C     0.67992   0.77788   0.33576   0.00000  Uiso   1.00
C224   C     0.68750   0.76573   0.33099   0.00000  Uiso   1.00
C225   C     0.63731   0.70748   0.35701   0.00000  Uiso   1.00
C226   C     0.62858   0.68730   0.36115   0.00000  Uiso   1.00
C227   C     0.63771   0.67587   0.35758   0.00000  Uiso   1.00
C228   C     0.65522   0.68470   0.34974   0.00000  Uiso   1.00
C229   C     0.62899   0.65552   0.36173   0.00000  Uiso   1.00
C230   C     0.61126   0.64668   0.36934   0.00000  Uiso   1.00
C231   C     0.60208   0.65815   0.37293   0.00000  Uiso   1.00
C232   C     0.61071   0.67836   0.36883   0.00000  Uiso   1.00
C233   C     0.73481   0.74088   0.31267   0.00000  Uiso   1.00
C234   C     0.74361   0.72946   0.30860   0.00000  Uiso   1.00
C235   C     0.73487   0.70895   0.31247   0.00000  Uiso   1.00
C236   C     0.71738   0.70004   0.32031   0.00000  Uiso   1.00
H85    H     0.68534   0.68710   0.33494   0.00000  Uiso   1.00
H86    H     0.71618   0.75901   0.32193   0.00000  Uiso   1.00
H87    H     0.64699   0.74614   0.35876   0.00000  Uiso   1.00
H88    H     0.69824   0.77196   0.32293   0.00000  Uiso   1.00
H89    H     0.62908   0.71515   0.35952   0.00000  Uiso   1.00
H90    H     0.66129   0.67500   0.34738   0.00000  Uiso   1.00
H91    H     0.63583   0.64649   0.35903   0.00000  Uiso   1.00
O43    O     0.60247   0.62648   0.37343   0.00000  Uiso   1.00
O44    O     0.58441   0.64917   0.38059   0.00000  Uiso   1.00
H92    H     0.60349   0.68700   0.37166   0.00000  Uiso   1.00
H93    H     0.74169   0.75663   0.30963   0.00000  Uiso   1.00
O45    O     0.76103   0.73817   0.30069   0.00000  Uiso   1.00
O46    O     0.74384   0.69770   0.30841   0.00000  Uiso   1.00
H94    H     0.71087   0.68427   0.32322   0.00000  Uiso   1.00
C237   C     0.68706   0.79757   0.33065   0.00000  Uiso   1.00
C238   C     0.67961   0.80957   0.33587   0.00000  Uiso   1.00
C239   C     0.66544   0.80245   0.34589   0.00000  Uiso   1.00
C240   C     0.65801   0.78295   0.35108   0.00000  Uiso   1.00
H95    H     0.69836   0.80358   0.32281   0.00000  Uiso   1.00
O47    O     0.68590   0.82904   0.33145   0.00000  Uiso   1.00
O48    O     0.65913   0.81559   0.35036   0.00000  Uiso   1.00
H96    H     0.64672   0.77761   0.35892   0.00000  Uiso   1.00
C241   C     0.26521   0.94057   0.33686   0.00000  Uiso   1.00
C242   C     0.27413   0.93166   0.34496   0.00000  Uiso   1.00
C243   C     0.29501   0.94329   0.34868   0.00000  Uiso   1.00
C244   C     0.30646   0.96421   0.34514   0.00000  Uiso   1.00
C245   C     0.29776   0.97291   0.33669   0.00000  Uiso   1.00
C246   C     0.27685   0.96145   0.33314   0.00000  Uiso   1.00
C247   C     0.32628   0.97608   0.35051   0.00000  Uiso   1.00
C248   C     0.33549   0.96735   0.35793   0.00000  Uiso   1.00
C249   C     0.32495   0.94630   0.36027   0.00000  Uiso   1.00
C250   C     0.30502   0.93454   0.35567   0.00000  Uiso   1.00
C251   C     0.24491   0.92808   0.33238   0.00000  Uiso   1.00
C252   C     0.23314   0.90795   0.33655   0.00000  Uiso   1.00
C253   C     0.24150   0.89961   0.34532   0.00000  Uiso   1.00
C254   C     0.26164   0.91138   0.34946   0.00000  Uiso   1.00
C255   C     0.26810   0.97145   0.32612   0.00000  Uiso   1.00
C256   C     0.27986   0.99138   0.32153   0.00000  Uiso   1.00
C257   C     0.30090   0.00194   0.32390   0.00000  Uiso   1.00
C258   C     0.30962   0.99274   0.33134   0.00000  Uiso   1.00
C259   C     0.31295   0.02175   0.31893   0.00000  Uiso   1.00
C260   C     0.30401   0.03104   0.31181   0.00000  Uiso   1.00
C261   C     0.28286   0.02058   0.30961   0.00000  Uiso   1.00
C262   C     0.27088   1.00083   0.31442   0.00000  Uiso   1.00
C263   C     0.33440   0.93732   0.36737   0.00000  Uiso   1.00
C264   C     0.35414   0.94930   0.37220   0.00000  Uiso   1.00
C265   C     0.36459   0.97046   0.37004   0.00000  Uiso   1.00
C266   C     0.35529   0.97940   0.36293   0.00000  Uiso   1.00
H97    H     0.33478   0.99236   0.34940   0.00000  Uiso   1.00
H98    H     0.29791   0.91846   0.35749   0.00000  Uiso   1.00
H99    H     0.23786   0.93336   0.32536   0.00000  Uiso   1.00
H100   H     0.26693   0.90435   0.35649   0.00000  Uiso   1.00
H101   H     0.25202   0.96432   0.32426   0.00000  Uiso   1.00
H102   H     0.32590   0.00125   0.33247   0.00000  Uiso   1.00
H103   H     0.32920   0.03004   0.32064   0.00000  Uiso   1.00
O49    O     0.31586   0.05071   0.30687   0.00000  Uiso   1.00
O50    O     0.27408   0.03009   0.30258   0.00000  Uiso   1.00
H104   H     0.25468   0.99290   0.31255   0.00000  Uiso   1.00
H105   H     0.32649   0.92110   0.36921   0.00000  Uiso   1.00
O51    O     0.36366   0.94051   0.37921   0.00000  Uiso   1.00
O52    O     0.38425   0.98231   0.37499   0.00000  Uiso   1.00
H106   H     0.36357   0.99566   0.36124   0.00000  Uiso   1.00
C267   C     0.22954   0.87941   0.34973   0.00000  Uiso   1.00
C268   C     0.20955   0.86791   0.34525   0.00000  Uiso   1.00
C269   C     0.20143   0.87600   0.33665   0.00000  Uiso   1.00
C270   C     0.21293   0.89598   0.33216   0.00000  Uiso   1.00
H107   H     0.23564   0.87266   0.35647   0.00000  Uiso   1.00
O53    O     0.19687   0.84801   0.34907   0.00000  Uiso   1.00
O54    O     0.18153   0.86332   0.33284   0.00000  Uiso   1.00
H108   H     0.20616   0.90207   0.32541   0.00000  Uiso   1.00
C271   C     0.27374   0.34697   0.34561   0.00000  Uiso   1.00
C272   C     0.26556   0.33072   0.33625   0.00000  Uiso   1.00
C273   C     0.27713   0.32150   0.33236   0.00000  Uiso   1.00
C274   C     0.29766   0.32993   0.33672   0.00000  Uiso   1.00
C275   C     0.30650   0.34748   0.34513   0.00000  Uiso   1.00
C276   C     0.29452   0.35603   0.34952   0.00000  Uiso   1.00
C277   C     0.30877   0.32044   0.33246   0.00000  Uiso   1.00
C278   C     0.30005   0.30313   0.32443   0.00000  Uiso   1.00
C279   C     0.27965   0.29449   0.32052   0.00000  Uiso   1.00
C280   C     0.26840   0.30345   0.32459   0.00000  Uiso   1.00
C281   C     0.26072   0.35368   0.35085   0.00000  Uiso   1.00
C282   C     0.24102   0.34625   0.34603   0.00000  Uiso   1.00
C283   C     0.23369   0.33167   0.33578   0.00000  Uiso   1.00
C284   C     0.24588   0.32417   0.33096   0.00000  Uiso   1.00
C285   C     0.30395   0.37403   0.35734   0.00000  Uiso   1.00
C286   C     0.32420   0.38289   0.36137   0.00000  Uiso   1.00
C287   C     0.33585   0.37419   0.35738   0.00000  Uiso   1.00
C288   C     0.32711   0.35686   0.34936   0.00000  Uiso   1.00
C289   C     0.35632   0.38316   0.36131   0.00000  Uiso   1.00
C290   C     0.36504   0.40066   0.36917   0.00000  Uiso   1.00
C291   C     0.35330   0.40933   0.37324   0.00000  Uiso   1.00
C292   C     0.33301   0.40052   0.36930   0.00000  Uiso   1.00
C293   C     0.27069   0.27685   0.31260   0.00000  Uiso   1.00
C294   C     0.28208   0.26799   0.30857   0.00000  Uiso   1.00
C295   C     0.30256   0.27667   0.31250   0.00000  Uiso   1.00
C296   C     0.31146   0.29413   0.32039   0.00000  Uiso   1.00
H109   H     0.32430   0.32594   0.33525   0.00000  Uiso   1.00
H110   H     0.25259   0.29551   0.32186   0.00000  Uiso   1.00
H111   H     0.26527   0.36437   0.35895   0.00000  Uiso   1.00
H112   H     0.23971   0.31353   0.32284   0.00000  Uiso   1.00
H113   H     0.29617   0.38202   0.36014   0.00000  Uiso   1.00
H114   H     0.33706   0.35128   0.34654   0.00000  Uiso   1.00
H115   H     0.36553   0.37666   0.35828   0.00000  Uiso   1.00
O55    O     0.38536   0.40970   0.37303   0.00000  Uiso   1.00
O56    O     0.36213   0.42671   0.38119   0.00000  Uiso   1.00
H116   H     0.32419   0.40739   0.37246   0.00000  Uiso   1.00
H117   H     0.25496   0.27001   0.30952   0.00000  Uiso   1.00
O57    O     0.27337   0.25058   0.30064   0.00000  Uiso   1.00
O58    O     0.31378   0.26767   0.30846   0.00000  Uiso   1.00
H118   H     0.32720   0.30058   0.32335   0.00000  Uiso   1.00
C297   C     0.21402   0.32455   0.33063   0.00000  Uiso   1.00
C298   C     0.20199   0.33195   0.33588   0.00000  Uiso   1.00
C299   C     0.20907   0.34605   0.34595   0.00000  Uiso   1.00
C300   C     0.22854   0.35343   0.35118   0.00000  Uiso   1.00
H119   H     0.20805   0.31333   0.32274   0.00000  Uiso   1.00
O59    O     0.18253   0.32568   0.33144   0.00000  Uiso   1.00
O60    O     0.19593   0.35234   0.35043   0.00000  Uiso   1.00
H120   H     0.23384   0.36465   0.35907   0.00000  Uiso   1.00
C301   C     0.66339   0.96407   0.34513   0.00000  Uiso   1.00
C302   C     0.65497   0.94354   0.34949   0.00000  Uiso   1.00
C303   C     0.66421   0.93197   0.34563   0.00000  Uiso   1.00
C304   C     0.68051   0.94018   0.33632   0.00000  Uiso   1.00
C305   C     0.68957   0.96096   0.33242   0.00000  Uiso   1.00
C306   C     0.68091   0.97289   0.33670   0.00000  Uiso   1.00
C307   C     0.68726   0.92718   0.33110   0.00000  Uiso   1.00
C308   C     0.67981   0.90747   0.33589   0.00000  Uiso   1.00
C309   C     0.66517   0.90011   0.34610   0.00000  Uiso   1.00
C310   C     0.65763   0.91229   0.35089   0.00000  Uiso   1.00
C311   C     0.65397   0.97521   0.34943   0.00000  Uiso   1.00
C312   C     0.63664   0.96649   0.35745   0.00000  Uiso   1.00
C313   C     0.62798   0.94609   0.36133   0.00000  Uiso   1.00
C314   C     0.63693   0.93483   0.35726   0.00000  Uiso   1.00
C315   C     0.69015   0.99343   0.33235   0.00000  Uiso   1.00
C316   C     0.70757   0.00221   0.32442   0.00000  Uiso   1.00
C317   C     0.71645   0.99065   0.32062   0.00000  Uiso   1.00
C318   C     0.70765   0.97043   0.32470   0.00000  Uiso   1.00
C319   C     0.73419   0.99951   0.31280   0.00000  Uiso   1.00
C320   C     0.74292   0.01976   0.30879   0.00000  Uiso   1.00
C321   C     0.73402   0.03139   0.31265   0.00000  Uiso   1.00
C322   C     0.71642   0.02262   0.32039   0.00000  Uiso   1.00
C323   C     0.65803   0.88043   0.35122   0.00000  Uiso   1.00
C324   C     0.66546   0.86840   0.34599   0.00000  Uiso   1.00
C325   C     0.67961   0.87551   0.33596   0.00000  Uiso   1.00
C326   C     0.68701   0.89499   0.33076   0.00000  Uiso   1.00
H121   H     0.69798   0.93176   0.32303   0.00000  Uiso   1.00
H122   H     0.64694   0.90608   0.35898   0.00000  Uiso   1.00
H123   H     0.65955   0.99079   0.34673   0.00000  Uiso   1.00
H124   H     0.62899   0.91902   0.35999   0.00000  Uiso   1.00
H125   H     0.68436   0.00328   0.33497   0.00000  Uiso   1.00
H126   H     0.71575   0.96270   0.32203   0.00000  Uiso   1.00
H127   H     0.74121   0.99077   0.30979   0.00000  Uiso   1.00
O61    O     0.76042   0.02865   0.30097   0.00000  Uiso   1.00
O62    O     0.74295   0.05166   0.30869   0.00000  Uiso   1.00
H128   H     0.70977   0.03176   0.32327   0.00000  Uiso   1.00
H129   H     0.64676   0.87443   0.35908   0.00000  Uiso   1.00
O63    O     0.65916   0.84894   0.35041   0.00000  Uiso   1.00
O64    O     0.68592   0.86238   0.33150   0.00000  Uiso   1.00
H130   H     0.69828   0.90032   0.32290   0.00000  Uiso   1.00
C327   C     0.61035   0.93714   0.36924   0.00000  Uiso   1.00
C328   C     0.60152   0.94854   0.37329   0.00000  Uiso   1.00
C329   C     0.61021   0.96903   0.36938   0.00000  Uiso   1.00
C330   C     0.62766   0.97792   0.36150   0.00000  Uiso   1.00
H131   H     0.60350   0.92140   0.37232   0.00000  Uiso   1.00
O65    O     0.58411   0.93983   0.38121   0.00000  Uiso   1.00
O66    O     0.60122   0.98026   0.37342   0.00000  Uiso   1.00
H132   H     0.63413   0.99367   0.35855   0.00000  Uiso   1.00
C331   C     0.03868   0.71380   0.33672   0.00000  Uiso   1.00
C332   C     0.05013   0.73471   0.33319   0.00000  Uiso   1.00
C333   C     0.07101   0.74635   0.33690   0.00000  Uiso   1.00
C334   C     0.07993   0.73743   0.34500   0.00000  Uiso   1.00
C335   C     0.06829   0.71655   0.34872   0.00000  Uiso   1.00
C336   C     0.04738   0.70510   0.34518   0.00000  Uiso   1.00
C337   C     0.10022   0.74993   0.34949   0.00000  Uiso   1.00
C338   C     0.11199   0.77006   0.34533   0.00000  Uiso   1.00
C339   C     0.10363   0.77841   0.33657   0.00000  Uiso   1.00
C340   C     0.08350   0.76664   0.33242   0.00000  Uiso   1.00
C341   C     0.01885   0.70193   0.33136   0.00000  Uiso   1.00
C342   C     0.00964   0.71066   0.32394   0.00000  Uiso   1.00
C343   C     0.02019   0.73170   0.32160   0.00000  Uiso   1.00
C344   C     0.04011   0.74347   0.32619   0.00000  Uiso   1.00
C345   C     0.03551   0.68527   0.35053   0.00000  Uiso   1.00
C346   C     0.04424   0.67607   0.35797   0.00000  Uiso   1.00
C347   C     0.06528   0.68663   0.36033   0.00000  Uiso   1.00
C348   C     0.07705   0.70655   0.35574   0.00000  Uiso   1.00
C349   C     0.07426   0.67718   0.36744   0.00000  Uiso   1.00
C350   C     0.06228   0.65744   0.37227   0.00000  Uiso   1.00
C351   C     0.04112   0.64698   0.37008   0.00000  Uiso   1.00
C352   C     0.03219   0.65627   0.36295   0.00000  Uiso   1.00
C353   C     0.11559   0.79861   0.33217   0.00000  Uiso   1.00
C354   C     0.13557   0.81012   0.33665   0.00000  Uiso   1.00
C355   C     0.14369   0.80202   0.34525   0.00000  Uiso   1.00
C356   C     0.13220   0.78203   0.34973   0.00000  Uiso   1.00
H133   H     0.10728   0.74465   0.35650   0.00000  Uiso   1.00
H134   H     0.07820   0.77367   0.32539   0.00000  Uiso   1.00
H135   H     0.01035   0.68565   0.33247   0.00000  Uiso   1.00
H136   H     0.04723   0.75955   0.32437   0.00000  Uiso   1.00
H137   H     0.01924   0.67677   0.34941   0.00000  Uiso   1.00
H138   H     0.09312   0.71367   0.35758   0.00000  Uiso   1.00
H139   H     0.09047   0.68510   0.36930   0.00000  Uiso   1.00
O67    O     0.07106   0.64792   0.37929   0.00000  Uiso   1.00
O68    O     0.02927   0.62732   0.37503   0.00000  Uiso   1.00
H140   H     0.01594   0.64798   0.36125   0.00000  Uiso   1.00
H141   H     0.10948   0.80538   0.32543   0.00000  Uiso   1.00
O69    O     0.14824   0.83002   0.33284   0.00000  Uiso   1.00
O70    O     0.16359   0.81471   0.34907   0.00000  Uiso   1.00
H142   H     0.13897   0.77594   0.35647   0.00000  Uiso   1.00
C357   C     0.01073   0.74069   0.31450   0.00000  Uiso   1.00
C358   C     0.99099   0.72871   0.30967   0.00000  Uiso   1.00
C359   C     0.98054   0.70755   0.31184   0.00000  Uiso   1.00
C360   C     0.98984   0.69861   0.31895   0.00000  Uiso   1.00
H143   H     0.01865   0.75690   0.31266   0.00000  Uiso   1.00
O71    O     0.98147   0.73750   0.30266   0.00000  Uiso   1.00
O72    O     0.96088   0.69570   0.30689   0.00000  Uiso   1.00
H144   H     0.98156   0.68235   0.32064   0.00000  Uiso   1.00
C361   C     0.71413   0.68141   0.67849   0.00000  Uiso   1.00
C362   C     0.73466   0.68983   0.68287   0.00000  Uiso   1.00
C363   C     0.74623   0.68060   0.67899   0.00000  Uiso   1.00
C364   C     0.73804   0.66434   0.66963   0.00000  Uiso   1.00
C365   C     0.71726   0.65528   0.66572   0.00000  Uiso   1.00
C366   C     0.70530   0.66387   0.67007   0.00000  Uiso   1.00
C367   C     0.75105   0.65763   0.66439   0.00000  Uiso   1.00
C368   C     0.77075   0.66505   0.66921   0.00000  Uiso   1.00
C369   C     0.77809   0.67963   0.67946   0.00000  Uiso   1.00
C370   C     0.76590   0.68715   0.68427   0.00000  Uiso   1.00
C371   C     0.70303   0.69089   0.68276   0.00000  Uiso   1.00
C372   C     0.71174   0.70820   0.69080   0.00000  Uiso   1.00
C373   C     0.73213   0.71683   0.69472   0.00000  Uiso   1.00
C374   C     0.74338   0.70786   0.69065   0.00000  Uiso   1.00
C375   C     0.68471   0.65453   0.66581   0.00000  Uiso   1.00
C376   C     0.67596   0.63717   0.65781   0.00000  Uiso   1.00
C377   C     0.68758   0.62841   0.65388   0.00000  Uiso   1.00
C378   C     0.70781   0.63726   0.65793   0.00000  Uiso   1.00
C379   C     0.67875   0.61075   0.64599   0.00000  Uiso   1.00
C380   C     0.65847   0.60196   0.64203   0.00000  Uiso   1.00
C381   C     0.64677   0.61071   0.64603   0.00000  Uiso   1.00
C382   C     0.65551   0.62824   0.65385   0.00000  Uiso   1.00
C383   C     0.79775   0.68674   0.68461   0.00000  Uiso   1.00
C384   C     0.80978   0.67934   0.67936   0.00000  Uiso   1.00
C385   C     0.80270   0.66525   0.66928   0.00000  Uiso   1.00
C386   C     0.78324   0.65788   0.66405   0.00000  Uiso   1.00
H145   H     0.74650   0.64694   0.65629   0.00000  Uiso   1.00
H146   H     0.77208   0.69779   0.69240   0.00000  Uiso   1.00
H147   H     0.68749   0.68538   0.67998   0.00000  Uiso   1.00
H148   H     0.75919   0.71580   0.69339   0.00000  Uiso   1.00
H149   H     0.67479   0.66018   0.66857   0.00000  Uiso   1.00
H150   H     0.71558   0.62923   0.65518   0.00000  Uiso   1.00
H151   H     0.68754   0.60382   0.64288   0.00000  Uiso   1.00
O73    O     0.64962   0.58453   0.63411   0.00000  Uiso   1.00
O74    O     0.62647   0.60171   0.64213   0.00000  Uiso   1.00
H152   H     0.64632   0.63480   0.65683   0.00000  Uiso   1.00
H153   H     0.80372   0.69796   0.69250   0.00000  Uiso   1.00
O75    O     0.82923   0.68560   0.68381   0.00000  Uiso   1.00
O76    O     0.81585   0.65898   0.66480   0.00000  Uiso   1.00
H154   H     0.77793   0.64666   0.65616   0.00000  Uiso   1.00
C387   C     0.74108   0.73446   0.70264   0.00000  Uiso   1.00
C388   C     0.72970   0.74332   0.70667   0.00000  Uiso   1.00
C389   C     0.70922   0.73466   0.70273   0.00000  Uiso   1.00
C390   C     0.70033   0.71720   0.69483   0.00000  Uiso   1.00
H155   H     0.75681   0.74130   0.70573   0.00000  Uiso   1.00
O77    O     0.73841   0.76073   0.71460   0.00000  Uiso   1.00
O78    O     0.69800   0.74365   0.70676   0.00000  Uiso   1.00
H156   H     0.68459   0.71075   0.69186   0.00000  Uiso   1.00
C391   C     0.33123   0.07110   0.67882   0.00000  Uiso   1.00
C392   C     0.34761   0.07935   0.66956   0.00000  Uiso   1.00
C393   C     0.35687   0.06780   0.66572   0.00000  Uiso   1.00
C394   C     0.34844   0.04726   0.67007   0.00000  Uiso   1.00
C395   C     0.33096   0.03846   0.67853   0.00000  Uiso   1.00
C396   C     0.32218   0.05032   0.68271   0.00000  Uiso   1.00
C397   C     0.35778   0.03608   0.66568   0.00000  Uiso   1.00
C398   C     0.37513   0.04481   0.65770   0.00000  Uiso   1.00
C399   C     0.38385   0.06525   0.65387   0.00000  Uiso   1.00
C400   C     0.37492   0.07652   0.65796   0.00000  Uiso   1.00
C401   C     0.32444   0.08407   0.68403   0.00000  Uiso   1.00
C402   C     0.33192   0.10380   0.67927   0.00000  Uiso   1.00
C403   C     0.34662   0.11121   0.66910   0.00000  Uiso   1.00
C404   C     0.35420   0.09906   0.66432   0.00000  Uiso   1.00
C405   C     0.30400   0.04079   0.69033   0.00000  Uiso   1.00
C406   C     0.29527   0.02061   0.69447   0.00000  Uiso   1.00
C407   C     0.30440   0.00918   0.69089   0.00000  Uiso   1.00
C408   C     0.32192   0.01802   0.68305   0.00000  Uiso   1.00
C409   C     0.29569   0.98883   0.69504   0.00000  Uiso   1.00
C410   C     0.27797   0.97998   0.70266   0.00000  Uiso   1.00
C411   C     0.26879   0.99146   0.70626   0.00000  Uiso   1.00
C412   C     0.27741   0.01166   0.70216   0.00000  Uiso   1.00
C413   C     0.40150   0.07420   0.64598   0.00000  Uiso   1.00
C414   C     0.41030   0.06279   0.64190   0.00000  Uiso   1.00
C415   C     0.40156   0.04228   0.64577   0.00000  Uiso   1.00
C416   C     0.38408   0.03337   0.65362   0.00000  Uiso   1.00
H157   H     0.35203   0.02042   0.66824   0.00000  Uiso   1.00
H158   H     0.38287   0.09234   0.65525   0.00000  Uiso   1.00
H159   H     0.31367   0.07944   0.69208   0.00000  Uiso   1.00
H160   H     0.36495   0.10530   0.65627   0.00000  Uiso   1.00
H161   H     0.29578   0.04846   0.69285   0.00000  Uiso   1.00
H162   H     0.32798   0.00832   0.68068   0.00000  Uiso   1.00
H163   H     0.30253   0.97980   0.69233   0.00000  Uiso   1.00
O79    O     0.26919   0.95978   0.70674   0.00000  Uiso   1.00
O80    O     0.25113   0.98247   0.71392   0.00000  Uiso   1.00
H164   H     0.27020   0.02030   0.70499   0.00000  Uiso   1.00
H165   H     0.40838   0.08996   0.64294   0.00000  Uiso   1.00
O81    O     0.42772   0.07150   0.63400   0.00000  Uiso   1.00
O82    O     0.41053   0.03103   0.64171   0.00000  Uiso   1.00
H166   H     0.37757   0.01760   0.65653   0.00000  Uiso   1.00
C417   C     0.35378   0.13090   0.66399   0.00000  Uiso   1.00
C418   C     0.34631   0.14290   0.66922   0.00000  Uiso   1.00
C419   C     0.33213   0.13576   0.67922   0.00000  Uiso   1.00
C420   C     0.32469   0.11626   0.68440   0.00000  Uiso   1.00
H167   H     0.36508   0.13692   0.65616   0.00000  Uiso   1.00
O83    O     0.35262   0.16237   0.66481   0.00000  Uiso   1.00
O84    O     0.32581   0.14889   0.68368   0.00000  Uiso   1.00
H168   H     0.31340   0.11091   0.69224   0.00000  Uiso   1.00
C421   C     0.93187   0.27389   0.67020   0.00000  Uiso   1.00
C422   C     0.94079   0.26498   0.67831   0.00000  Uiso   1.00
C423   C     0.96167   0.27661   0.68203   0.00000  Uiso   1.00
C424   C     0.97312   0.29753   0.67849   0.00000  Uiso   1.00
C425   C     0.96442   0.30622   0.67004   0.00000  Uiso   1.00
C426   C     0.94351   0.29478   0.66649   0.00000  Uiso   1.00
C427   C     0.99296   0.30939   0.68385   0.00000  Uiso   1.00
C428   C     0.00216   0.30066   0.69128   0.00000  Uiso   1.00
C429   C     0.99160   0.27962   0.69364   0.00000  Uiso   1.00
C430   C     0.97167   0.26786   0.68905   0.00000  Uiso   1.00
C431   C     0.91158   0.26140   0.66571   0.00000  Uiso   1.00
C432   C     0.89981   0.24126   0.66986   0.00000  Uiso   1.00
C433   C     0.90816   0.23292   0.67863   0.00000  Uiso   1.00
C434   C     0.92829   0.24469   0.68279   0.00000  Uiso   1.00
C435   C     0.93476   0.30478   0.65948   0.00000  Uiso   1.00
C436   C     0.94652   0.32471   0.65489   0.00000  Uiso   1.00
C437   C     0.96756   0.33526   0.65725   0.00000  Uiso   1.00
C438   C     0.97629   0.32605   0.66468   0.00000  Uiso   1.00
C439   C     0.97961   0.35507   0.65227   0.00000  Uiso   1.00
C440   C     0.97068   0.36436   0.64515   0.00000  Uiso   1.00
C441   C     0.94952   0.35391   0.64297   0.00000  Uiso   1.00
C442   C     0.93754   0.33416   0.64779   0.00000  Uiso   1.00
C443   C     1.00104   0.27064   0.70075   0.00000  Uiso   1.00
C444   C     0.02079   0.28262   0.70557   0.00000  Uiso   1.00
C445   C     0.03125   0.30377   0.70338   0.00000  Uiso   1.00
C446   C     0.02197   0.31271   0.69626   0.00000  Uiso   1.00
H169   H     0.00147   0.32566   0.68273   0.00000  Uiso   1.00
H170   H     0.96454   0.25178   0.69089   0.00000  Uiso   1.00
H171   H     0.90454   0.26668   0.65869   0.00000  Uiso   1.00
H172   H     0.93358   0.23765   0.68982   0.00000  Uiso   1.00
H173   H     0.91868   0.29766   0.65764   0.00000  Uiso   1.00
H174   H     0.99256   0.33456   0.66580   0.00000  Uiso   1.00
H175   H     0.99586   0.36335   0.65398   0.00000  Uiso   1.00
O85    O     0.98253   0.38402   0.64021   0.00000  Uiso   1.00
O86    O     0.94074   0.36343   0.63595   0.00000  Uiso   1.00
H176   H     0.92133   0.32624   0.64593   0.00000  Uiso   1.00
H177   H     0.99311   0.25443   0.70261   0.00000  Uiso   1.00
O87    O     0.03030   0.27383   0.71260   0.00000  Uiso   1.00
O88    O     0.05092   0.31562   0.70832   0.00000  Uiso   1.00
H178   H     0.03026   0.32896   0.69455   0.00000  Uiso   1.00
C447   C     0.89621   0.21271   0.68302   0.00000  Uiso   1.00
C448   C     0.87622   0.20120   0.67853   0.00000  Uiso   1.00
C449   C     0.86811   0.20930   0.66993   0.00000  Uiso   1.00
C450   C     0.87961   0.22929   0.66545   0.00000  Uiso   1.00
H179   H     0.90230   0.20595   0.68977   0.00000  Uiso   1.00
O89    O     0.86355   0.18130   0.68234   0.00000  Uiso   1.00
O90    O     0.84822   0.19662   0.66611   0.00000  Uiso   1.00
H180   H     0.87284   0.23538   0.65871   0.00000  Uiso   1.00
C451   C     0.94039   0.68027   0.67894   0.00000  Uiso   1.00
C452   C     0.93222   0.66402   0.66957   0.00000  Uiso   1.00
C453   C     0.94379   0.65481   0.66569   0.00000  Uiso   1.00
C454   C     0.96432   0.66324   0.67005   0.00000  Uiso   1.00
C455   C     0.97316   0.68079   0.67846   0.00000  Uiso   1.00
C456   C     0.96118   0.68934   0.68285   0.00000  Uiso   1.00
C457   C     0.97542   0.65375   0.66580   0.00000  Uiso   1.00
C458   C     0.96671   0.63643   0.65776   0.00000  Uiso   1.00
C459   C     0.94632   0.62781   0.65384   0.00000  Uiso   1.00
C460   C     0.93507   0.63677   0.65791   0.00000  Uiso   1.00
C461   C     0.92738   0.68697   0.68419   0.00000  Uiso   1.00
C462   C     0.90767   0.67955   0.67937   0.00000  Uiso   1.00
C463   C     0.90035   0.66498   0.66911   0.00000  Uiso   1.00
C464   C     0.91254   0.65748   0.66429   0.00000  Uiso   1.00
C465   C     0.97061   0.70733   0.69067   0.00000  Uiso   1.00
C466   C     0.99086   0.71621   0.69469   0.00000  Uiso   1.00
C467   C     0.00251   0.70751   0.69070   0.00000  Uiso   1.00
C468   C     0.99377   0.69018   0.68268   0.00000  Uiso   1.00
C469   C     0.02298   0.71648   0.69463   0.00000  Uiso   1.00
C470   C     0.03171   0.73399   0.70248   0.00000  Uiso   1.00
C471   C     0.01997   0.74266   0.70655   0.00000  Uiso   1.00
C472   C     0.99967   0.73384   0.70262   0.00000  Uiso   1.00
C473   C     0.93736   0.61017   0.64592   0.00000  Uiso   1.00
C474   C     0.94875   0.60131   0.64189   0.00000  Uiso   1.00
C475   C     0.96922   0.60998   0.64583   0.00000  Uiso   1.00
C476   C     0.97812   0.62743   0.65372   0.00000  Uiso   1.00
H181   H     0.99095   0.65923   0.66860   0.00000  Uiso   1.00
H182   H     0.91925   0.62883   0.65518   0.00000  Uiso   1.00
H183   H     0.93192   0.69766   0.69229   0.00000  Uiso   1.00
H184   H     0.90637   0.64685   0.65616   0.00000  Uiso   1.00
H185   H     0.96282   0.71532   0.69347   0.00000  Uiso   1.00
H186   H     0.00372   0.68460   0.67986   0.00000  Uiso   1.00
H187   H     0.03220   0.70999   0.69159   0.00000  Uiso   1.00
O91    O     0.05203   0.74304   0.70633   0.00000  Uiso   1.00
O92    O     0.02880   0.76005   0.71450   0.00000  Uiso   1.00
H188   H     0.99086   0.74071   0.70578   0.00000  Uiso   1.00
H189   H     0.92163   0.60334   0.64283   0.00000  Uiso   1.00
O93    O     0.94004   0.58391   0.63395   0.00000  Uiso   1.00
O94    O     0.98045   0.60098   0.64179   0.00000  Uiso   1.00
H190   H     0.99386   0.63389   0.65669   0.00000  Uiso   1.00
C477   C     0.88069   0.65787   0.66396   0.00000  Uiso   1.00
C478   C     0.86865   0.66526   0.66921   0.00000  Uiso   1.00
C479   C     0.87572   0.67935   0.67929   0.00000  Uiso   1.00
C480   C     0.89519   0.68672   0.68452   0.00000  Uiso   1.00
H191   H     0.87472   0.64665   0.65606   0.00000  Uiso   1.00
O95    O     0.84920   0.65900   0.66476   0.00000  Uiso   1.00
O96    O     0.86257   0.68562   0.68377   0.00000  Uiso   1.00
H192   H     0.90049   0.69793   0.69242   0.00000  Uiso   1.00
C481   C     0.33002   0.29736   0.67847   0.00000  Uiso   1.00
C482   C     0.32160   0.27682   0.68282   0.00000  Uiso   1.00
C483   C     0.33085   0.26526   0.67898   0.00000  Uiso   1.00
C484   C     0.34721   0.27350   0.66971   0.00000  Uiso   1.00
C485   C     0.35626   0.29428   0.66581   0.00000  Uiso   1.00
C486   C     0.34752   0.30617   0.67002   0.00000  Uiso   1.00
C487   C     0.35398   0.26053   0.66449   0.00000  Uiso   1.00
C488   C     0.34652   0.24080   0.66926   0.00000  Uiso   1.00
C489   C     0.33183   0.23341   0.67945   0.00000  Uiso   1.00
C490   C     0.32426   0.24556   0.68422   0.00000  Uiso   1.00
C491   C     0.32065   0.30852   0.68282   0.00000  Uiso   1.00
C492   C     0.30330   0.29979   0.69081   0.00000  Uiso   1.00
C493   C     0.29461   0.27937   0.69466   0.00000  Uiso   1.00
C494   C     0.30355   0.26810   0.69058   0.00000  Uiso   1.00
C495   C     0.35664   0.32665   0.66557   0.00000  Uiso   1.00
C496   C     0.37413   0.33547   0.65770   0.00000  Uiso   1.00
C497   C     0.38317   0.32398   0.65404   0.00000  Uiso   1.00
C498   C     0.37440   0.30379   0.65816   0.00000  Uiso   1.00
C499   C     0.40099   0.33290   0.64632   0.00000  Uiso   1.00
C500   C     0.40965   0.35312   0.64225   0.00000  Uiso   1.00
C501   C     0.40058   0.36466   0.64594   0.00000  Uiso   1.00
C502   C     0.38290   0.35584   0.65360   0.00000  Uiso   1.00
C503   C     0.32468   0.21372   0.68455   0.00000  Uiso   1.00
C504   C     0.33213   0.20171   0.67933   0.00000  Uiso   1.00
C505   C     0.34632   0.20884   0.66932   0.00000  Uiso   1.00
C506   C     0.35374   0.22834   0.66414   0.00000  Uiso   1.00
H193   H     0.36474   0.26513   0.65643   0.00000  Uiso   1.00
H194   H     0.31353   0.23933   0.69229   0.00000  Uiso   1.00
H195   H     0.32633   0.32415   0.68021   0.00000  Uiso   1.00
H196   H     0.29560   0.25229   0.69330   0.00000  Uiso   1.00
H197   H     0.35068   0.33641   0.66803   0.00000  Uiso   1.00
H198   H     0.38258   0.29610   0.65559   0.00000  Uiso   1.00
H199   H     0.40813   0.32422   0.64342   0.00000  Uiso   1.00
O97    O     0.42727   0.36207   0.63454   0.00000  Uiso   1.00
O98    O     0.40941   0.38488   0.64190   0.00000  Uiso   1.00
H200   H     0.37612   0.36491   0.65637   0.00000  Uiso   1.00
H201   H     0.31338   0.20770   0.69239   0.00000  Uiso   1.00
O99    O     0.32582   0.18224   0.68374   0.00000  Uiso   1.00
O100   O     0.35264   0.19571   0.66486   0.00000  Uiso   1.00
H202   H     0.36503   0.23369   0.65629   0.00000  Uiso   1.00
C507   C     0.27697   0.27042   0.70256   0.00000  Uiso   1.00
C508   C     0.26815   0.28183   0.70662   0.00000  Uiso   1.00
C509   C     0.27687   0.30233   0.70274   0.00000  Uiso   1.00
C510   C     0.29434   0.31123   0.69488   0.00000  Uiso   1.00
H203   H     0.27009   0.25467   0.70562   0.00000  Uiso   1.00
O101   O     0.25074   0.27312   0.71454   0.00000  Uiso   1.00
O102   O     0.26789   0.31357   0.70679   0.00000  Uiso   1.00
H204   H     0.30084   0.32699   0.69195   0.00000  Uiso   1.00
C511   C     0.70534   0.04711   0.67003   0.00000  Uiso   1.00
C512   C     0.71678   0.06803   0.66650   0.00000  Uiso   1.00
C513   C     0.73767   0.07966   0.67021   0.00000  Uiso   1.00
C514   C     0.74659   0.07075   0.67830   0.00000  Uiso   1.00
C515   C     0.73496   0.04987   0.68202   0.00000  Uiso   1.00
C516   C     0.71404   0.03842   0.67848   0.00000  Uiso   1.00
C517   C     0.76689   0.08324   0.68278   0.00000  Uiso   1.00
C518   C     0.77866   0.10337   0.67862   0.00000  Uiso   1.00
C519   C     0.77030   0.11172   0.66986   0.00000  Uiso   1.00
C520   C     0.75016   0.09995   0.66571   0.00000  Uiso   1.00
C521   C     0.68551   0.03525   0.66467   0.00000  Uiso   1.00
C522   C     0.67630   0.04398   0.65724   0.00000  Uiso   1.00
C523   C     0.68685   0.06502   0.65491   0.00000  Uiso   1.00
C524   C     0.70677   0.07679   0.65950   0.00000  Uiso   1.00
C525   C     0.70218   0.01859   0.68384   0.00000  Uiso   1.00
C526   C     0.71091   0.00938   0.69127   0.00000  Uiso   1.00
C527   C     0.73195   0.01994   0.69362   0.00000  Uiso   1.00
C528   C     0.74372   0.03986   0.68903   0.00000  Uiso   1.00
C529   C     0.74093   0.01049   0.70072   0.00000  Uiso   1.00
C530   C     0.72895   0.99075   0.70556   0.00000  Uiso   1.00
C531   C     0.70779   0.98030   0.70338   0.00000  Uiso   1.00
C532   C     0.69886   0.98959   0.69626   0.00000  Uiso   1.00
C533   C     0.78226   0.13191   0.66545   0.00000  Uiso   1.00
C534   C     0.80225   0.14342   0.66992   0.00000  Uiso   1.00
C535   C     0.81037   0.13532   0.67852   0.00000  Uiso   1.00
C536   C     0.79887   0.11534   0.68301   0.00000  Uiso   1.00
H205   H     0.77394   0.07795   0.68979   0.00000  Uiso   1.00
H206   H     0.74486   0.10698   0.65869   0.00000  Uiso   1.00
H207   H     0.67702   0.01897   0.66577   0.00000  Uiso   1.00
H208   H     0.71389   0.09287   0.65769   0.00000  Uiso   1.00
H209   H     0.68590   0.01009   0.68273   0.00000  Uiso   1.00
H210   H     0.75979   0.04698   0.69086   0.00000  Uiso   1.00
H211   H     0.75715   0.01840   0.70257   0.00000  Uiso   1.00
O103   O     0.73774   0.98123   0.71257   0.00000  Uiso   1.00
O104   O     0.69595   0.96064   0.70834   0.00000  Uiso   1.00
H212   H     0.68260   0.98131   0.69457   0.00000  Uiso   1.00
H213   H     0.77616   0.13868   0.65871   0.00000  Uiso   1.00
O105   O     0.81493   0.16331   0.66610   0.00000  Uiso   1.00
O106   O     0.83027   0.14800   0.68233   0.00000  Uiso   1.00
H214   H     0.80565   0.10925   0.68975   0.00000  Uiso   1.00
C537   C     0.67739   0.07401   0.64781   0.00000  Uiso   1.00
C538   C     0.65766   0.06203   0.64297   0.00000  Uiso   1.00
C539   C     0.64722   0.04086   0.64513   0.00000  Uiso   1.00
C540   C     0.65651   0.03192   0.65224   0.00000  Uiso   1.00
H215   H     0.68531   0.09022   0.64597   0.00000  Uiso   1.00
O107   O     0.64814   0.07082   0.63596   0.00000  Uiso   1.00
O108   O     0.62756   0.02902   0.64016   0.00000  Uiso   1.00
H216   H     0.64823   0.01567   0.65392   0.00000  Uiso   1.00
C541   C     0.37399   0.19919   0.07877   0.00000  Uiso   1.00
C542   C     0.36980   0.20646   0.09076   0.00000  Uiso   1.00
C543   C     0.36512   0.19473   0.10268   0.00000  Uiso   1.00
C544   C     0.36658   0.17676   0.10292   0.00000  Uiso   1.00
C545   C     0.37041   0.16928   0.09088   0.00000  Uiso   1.00
C546   C     0.37491   0.18089   0.07893   0.00000  Uiso   1.00
C547   C     0.36447   0.16691   0.11534   0.00000  Uiso   1.00
C548   C     0.35892   0.17313   0.12690   0.00000  Uiso   1.00
C549   C     0.35550   0.18969   0.12635   0.00000  Uiso   1.00
C550   C     0.35854   0.20022   0.11440   0.00000  Uiso   1.00
C551   C     0.37666   0.21032   0.06682   0.00000  Uiso   1.00
C552   C     0.37684   0.22878   0.06677   0.00000  Uiso   1.00
C553   C     0.37421   0.23666   0.07878   0.00000  Uiso   1.00
C554   C     0.37091   0.22568   0.09057   0.00000  Uiso   1.00
C555   C     0.38055   0.17390   0.06746   0.00000  Uiso   1.00
C556   C     0.37995   0.15523   0.06730   0.00000  Uiso   1.00
C557   C     0.37392   0.14305   0.07879   0.00000  Uiso   1.00
C558   C     0.36920   0.15003   0.09036   0.00000  Uiso   1.00
C559   C     0.37276   0.12400   0.07859   0.00000  Uiso   1.00
C560   C     0.37763   0.11720   0.06701   0.00000  Uiso   1.00
C561   C     0.38376   0.12946   0.05548   0.00000  Uiso   1.00
C562   C     0.38498   0.14840   0.05567   0.00000  Uiso   1.00
C563   C     0.34927   0.19561   0.13790   0.00000  Uiso   1.00
C564   C     0.34674   0.18504   0.14978   0.00000  Uiso   1.00
C565   C     0.35027   0.16904   0.15035   0.00000  Uiso   1.00
C566   C     0.35640   0.16282   0.13905   0.00000  Uiso   1.00
H217   H     0.36752   0.15459   0.11645   0.00000  Uiso   1.00
H218   H     0.35510   0.21235   0.11449   0.00000  Uiso   1.00
H219   H     0.37820   0.20486   0.05725   0.00000  Uiso   1.00
H220   H     0.36979   0.23287   0.09952   0.00000  Uiso   1.00
H221   H     0.38583   0.18274   0.05846   0.00000  Uiso   1.00
H222   H     0.36397   0.13973   0.09870   0.00000  Uiso   1.00
H223   H     0.36809   0.11442   0.08738   0.00000  Uiso   1.00
O109   O     0.37637   0.09825   0.06669   0.00000  Uiso   1.00
O110   O     0.38835   0.12240   0.04391   0.00000  Uiso   1.00
H224   H     0.38962   0.15761   0.04672   0.00000  Uiso   1.00
H225   H     0.34650   0.20827   0.13771   0.00000  Uiso   1.00
O111   O     0.34065   0.18989   0.16150   0.00000  Uiso   1.00
O112   O     0.34730   0.15964   0.16259   0.00000  Uiso   1.00
H226   H     0.35897   0.15006   0.13972   0.00000  Uiso   1.00
C567   C     0.37470   0.25540   0.07883   0.00000  Uiso   1.00
C568   C     0.37764   0.26611   0.06695   0.00000  Uiso   1.00
C569   C     0.38025   0.25819   0.05489   0.00000  Uiso   1.00
C570   C     0.37983   0.23962   0.05482   0.00000  Uiso   1.00
H227   H     0.37266   0.26165   0.08802   0.00000  Uiso   1.00
O113   O     0.37793   0.28461   0.06689   0.00000  Uiso   1.00
O114   O     0.38326   0.26904   0.04309   0.00000  Uiso   1.00
H228   H     0.38190   0.23375   0.04548   0.00000  Uiso   1.00
C571   C     0.81182   0.18110   0.07882   0.00000  Uiso   1.00
C572   C     0.80532   0.16895   0.09059   0.00000  Uiso   1.00
C573   C     0.81662   0.17638   0.10267   0.00000  Uiso   1.00
C574   C     0.83540   0.19514   0.10268   0.00000  Uiso   1.00
C575   C     0.84276   0.20652   0.09062   0.00000  Uiso   1.00
C576   C     0.83070   0.19985   0.07879   0.00000  Uiso   1.00
C577   C     0.84618   0.20213   0.11493   0.00000  Uiso   1.00
C578   C     0.83927   0.19088   0.12667   0.00000  Uiso   1.00
C579   C     0.82067   0.17251   0.12668   0.00000  Uiso   1.00
C580   C     0.80941   0.16572   0.11493   0.00000  Uiso   1.00
C581   C     0.79928   0.17383   0.06728   0.00000  Uiso   1.00
C582   C     0.78156   0.15488   0.06700   0.00000  Uiso   1.00
C583   C     0.77575   0.14253   0.07840   0.00000  Uiso   1.00
C584   C     0.78761   0.14943   0.08990   0.00000  Uiso   1.00
C585   C     0.83827   0.21198   0.06709   0.00000  Uiso   1.00
C586   C     0.85706   0.22989   0.06688   0.00000  Uiso   1.00
C587   C     0.86908   0.23617   0.07842   0.00000  Uiso   1.00
C588   C     0.86208   0.22451   0.09000   0.00000  Uiso   1.00
C589   C     0.88811   0.25409   0.07825   0.00000  Uiso   1.00
C590   C     0.89507   0.26562   0.06661   0.00000  Uiso   1.00
C591   C     0.88307   0.25926   0.05498   0.00000  Uiso   1.00
C592   C     0.86415   0.24150   0.05514   0.00000  Uiso   1.00
C593   C     0.81356   0.16120   0.13856   0.00000  Uiso   1.00
C594   C     0.82525   0.16831   0.15014   0.00000  Uiso   1.00
C595   C     0.84340   0.18623   0.15012   0.00000  Uiso   1.00
C596   C     0.85066   0.19783   0.13854   0.00000  Uiso   1.00
H229   H     0.85997   0.21649   0.11585   0.00000  Uiso   1.00
H230   H     0.79479   0.15221   0.11584   0.00000  Uiso   1.00
H231   H     0.80269   0.18247   0.05822   0.00000  Uiso   1.00
H232   H     0.78280   0.13883   0.09805   0.00000  Uiso   1.00
H233   H     0.83015   0.20793   0.05781   0.00000  Uiso   1.00
H234   H     0.87246   0.22981   0.09827   0.00000  Uiso   1.00
H235   H     0.89754   0.25915   0.08710   0.00000  Uiso   1.00
O115   O     0.91392   0.28341   0.06637   0.00000  Uiso   1.00
O116   O     0.89029   0.27078   0.04336   0.00000  Uiso   1.00
H236   H     0.85509   0.23680   0.04611   0.00000  Uiso   1.00
H237   H     0.79927   0.14700   0.13882   0.00000  Uiso   1.00
O117   O     0.81954   0.15796   0.16211   0.00000  Uiso   1.00
O118   O     0.85381   0.19182   0.16208   0.00000  Uiso   1.00
H238   H     0.86503   0.21195   0.13878   0.00000  Uiso   1.00
C597   C     0.75802   0.12334   0.07816   0.00000  Uiso   1.00
C598   C     0.74624   0.11654   0.06661   0.00000  Uiso   1.00
C599   C     0.75218   0.12884   0.05511   0.00000  Uiso   1.00
C600   C     0.76970   0.14794   0.05535   0.00000  Uiso   1.00
H239   H     0.75330   0.11369   0.08691   0.00000  Uiso   1.00
O119   O     0.72861   0.09756   0.06631   0.00000  Uiso   1.00
O120   O     0.74048   0.12173   0.04355   0.00000  Uiso   1.00
H240   H     0.77408   0.15723   0.04643   0.00000  Uiso   1.00
C601   C     0.80518   0.64183   0.09075   0.00000  Uiso   1.00
C602   C     0.81245   0.63765   0.07875   0.00000  Uiso   1.00
C603   C     0.83075   0.63672   0.07892   0.00000  Uiso   1.00
C604   C     0.84235   0.64120   0.09088   0.00000  Uiso   1.00
C605   C     0.83487   0.64503   0.10291   0.00000  Uiso   1.00
C606   C     0.81692   0.64651   0.10266   0.00000  Uiso   1.00
C607   C     0.86159   0.64240   0.09037   0.00000  Uiso   1.00
C608   C     0.86858   0.63770   0.07880   0.00000  Uiso   1.00
C609   C     0.85641   0.63169   0.06729   0.00000  Uiso   1.00
C610   C     0.83775   0.63110   0.06744   0.00000  Uiso   1.00
C611   C     0.78595   0.64068   0.09056   0.00000  Uiso   1.00
C612   C     0.77497   0.63738   0.07877   0.00000  Uiso   1.00
C613   C     0.78285   0.63478   0.06675   0.00000  Uiso   1.00
C614   C     0.80132   0.63498   0.06680   0.00000  Uiso   1.00
C615   C     0.81145   0.65313   0.11438   0.00000  Uiso   1.00
C616   C     0.82197   0.65616   0.12634   0.00000  Uiso   1.00
C617   C     0.83848   0.65266   0.12691   0.00000  Uiso   1.00
C618   C     0.84469   0.64710   0.11535   0.00000  Uiso   1.00
C619   C     0.84876   0.65514   0.13906   0.00000  Uiso   1.00
C620   C     0.84256   0.66129   0.15036   0.00000  Uiso   1.00
C621   C     0.82660   0.66490   0.14977   0.00000  Uiso   1.00
C622   C     0.81607   0.66241   0.13788   0.00000  Uiso   1.00
C623   C     0.86325   0.62668   0.05566   0.00000  Uiso   1.00
C624   C     0.88219   0.62791   0.05548   0.00000  Uiso   1.00
C625   C     0.89444   0.63402   0.06701   0.00000  Uiso   1.00
C626   C     0.88763   0.63887   0.07860   0.00000  Uiso   1.00
H241   H     0.87189   0.64762   0.09872   0.00000  Uiso   1.00
H242   H     0.82891   0.62584   0.05844   0.00000  Uiso   1.00
H243   H     0.77877   0.64177   0.09952   0.00000  Uiso   1.00
H244   H     0.80678   0.63345   0.05723   0.00000  Uiso   1.00
H245   H     0.79936   0.65663   0.11445   0.00000  Uiso   1.00
H246   H     0.85699   0.64401   0.11646   0.00000  Uiso   1.00
H247   H     0.86149   0.65252   0.13975   0.00000  Uiso   1.00
O121   O     0.85192   0.66421   0.16261   0.00000  Uiso   1.00
O122   O     0.82177   0.67100   0.16149   0.00000  Uiso   1.00
H248   H     0.80345   0.66524   0.13768   0.00000  Uiso   1.00
H249   H     0.85404   0.62206   0.04670   0.00000  Uiso   1.00
O123   O     0.88925   0.62333   0.04390   0.00000  Uiso   1.00
O124   O     0.91338   0.63528   0.06670   0.00000  Uiso   1.00
H250   H     0.89720   0.64352   0.08739   0.00000  Uiso   1.00
C627   C     0.77202   0.63180   0.05480   0.00000  Uiso   1.00
C628   C     0.75344   0.63136   0.05488   0.00000  Uiso   1.00
C629   C     0.74551   0.63394   0.06694   0.00000  Uiso   1.00
C630   C     0.75622   0.63687   0.07882   0.00000  Uiso   1.00
H251   H     0.77789   0.62975   0.04546   0.00000  Uiso   1.00
O125   O     0.74258   0.62837   0.04307   0.00000  Uiso   1.00
O126   O     0.72701   0.63363   0.06688   0.00000  Uiso   1.00
H252   H     0.74996   0.63888   0.08801   0.00000  Uiso   1.00
C631   C     0.16948   0.37019   0.92434   0.00000  Uiso   1.00
C632   C     0.18108   0.37467   0.93630   0.00000  Uiso   1.00
C633   C     0.19938   0.37374   0.93647   0.00000  Uiso   1.00
C634   C     0.20666   0.36957   0.92447   0.00000  Uiso   1.00
C635   C     0.19492   0.36488   0.91255   0.00000  Uiso   1.00
C636   C     0.17697   0.36637   0.91230   0.00000  Uiso   1.00
C637   C     0.22589   0.37072   0.92466   0.00000  Uiso   1.00
C638   C     0.23687   0.37402   0.93646   0.00000  Uiso   1.00
C639   C     0.22897   0.37659   0.94847   0.00000  Uiso   1.00
C640   C     0.21050   0.37638   0.94842   0.00000  Uiso   1.00
C641   C     0.15025   0.36901   0.92485   0.00000  Uiso   1.00
C642   C     0.14326   0.37370   0.93642   0.00000  Uiso   1.00
C643   C     0.15542   0.37970   0.94793   0.00000  Uiso   1.00
C644   C     0.17408   0.38028   0.94778   0.00000  Uiso   1.00
C645   C     0.16714   0.36429   0.89987   0.00000  Uiso   1.00
C646   C     0.17336   0.35872   0.88831   0.00000  Uiso   1.00
C647   C     0.18987   0.35523   0.88888   0.00000  Uiso   1.00
C648   C     0.20039   0.35826   0.90085   0.00000  Uiso   1.00
C649   C     0.19577   0.34897   0.87734   0.00000  Uiso   1.00
C650   C     0.18523   0.34647   0.86545   0.00000  Uiso   1.00
C651   C     0.16927   0.35007   0.86486   0.00000  Uiso   1.00
C652   C     0.16307   0.35623   0.87616   0.00000  Uiso   1.00
C653   C     0.23979   0.37956   0.96042   0.00000  Uiso   1.00
C654   C     0.25838   0.38002   0.96035   0.00000  Uiso   1.00
C655   C     0.26632   0.37746   0.94828   0.00000  Uiso   1.00
C656   C     0.25562   0.37454   0.93640   0.00000  Uiso   1.00
H253   H     0.23308   0.36965   0.91570   0.00000  Uiso   1.00
H254   H     0.20503   0.37789   0.95800   0.00000  Uiso   1.00
H255   H     0.13996   0.36380   0.91649   0.00000  Uiso   1.00
H256   H     0.18292   0.38554   0.95678   0.00000  Uiso   1.00
H257   H     0.15484   0.36737   0.89876   0.00000  Uiso   1.00
H258   H     0.21249   0.35477   0.90077   0.00000  Uiso   1.00
H259   H     0.20840   0.34615   0.87754   0.00000  Uiso   1.00
O127   O     0.19006   0.34036   0.85373   0.00000  Uiso   1.00
O128   O     0.15990   0.34713   0.85262   0.00000  Uiso   1.00
H260   H     0.15034   0.35884   0.87547   0.00000  Uiso   1.00
H261   H     0.23391   0.38158   0.96977   0.00000  Uiso   1.00
O129   O     0.26923   0.38299   0.97216   0.00000  Uiso   1.00
O130   O     0.28483   0.37779   0.94834   0.00000  Uiso   1.00
H262   H     0.26189   0.37255   0.92721   0.00000  Uiso   1.00
C657   C     0.14858   0.38470   0.95957   0.00000  Uiso   1.00
C658   C     0.12964   0.38348   0.95974   0.00000  Uiso   1.00
C659   C     0.11740   0.37738   0.94821   0.00000  Uiso   1.00
C660   C     0.12421   0.37254   0.93661   0.00000  Uiso   1.00
H263   H     0.15778   0.38931   0.96853   0.00000  Uiso   1.00
O131   O     0.12258   0.38804   0.97132   0.00000  Uiso   1.00
O132   O     0.09846   0.37613   0.94851   0.00000  Uiso   1.00
H264   H     0.11464   0.36790   0.92782   0.00000  Uiso   1.00
C661   C     0.63695   0.83055   0.93628   0.00000  Uiso   1.00
C662   C     0.64144   0.84214   0.92432   0.00000  Uiso   1.00
C663   C     0.64526   0.83465   0.91229   0.00000  Uiso   1.00
C664   C     0.64674   0.81670   0.91254   0.00000  Uiso   1.00
C665   C     0.64206   0.80497   0.92445   0.00000  Uiso   1.00
C666   C     0.63788   0.81224   0.93645   0.00000  Uiso   1.00
C667   C     0.65335   0.81122   0.90083   0.00000  Uiso   1.00
C668   C     0.65638   0.82174   0.88887   0.00000  Uiso   1.00
C669   C     0.65289   0.83826   0.88831   0.00000  Uiso   1.00
C670   C     0.64733   0.84448   0.89986   0.00000  Uiso   1.00
C671   C     0.63131   0.83754   0.94775   0.00000  Uiso   1.00
C672   C     0.63190   0.85620   0.94790   0.00000  Uiso   1.00
C673   C     0.63793   0.86838   0.93641   0.00000  Uiso   1.00
C674   C     0.64264   0.86139   0.92484   0.00000  Uiso   1.00
C675   C     0.63523   0.80113   0.94840   0.00000  Uiso   1.00
C676   C     0.63503   0.78266   0.94845   0.00000  Uiso   1.00
C677   C     0.63761   0.77475   0.93643   0.00000  Uiso   1.00
C678   C     0.64092   0.78573   0.92465   0.00000  Uiso   1.00
C679   C     0.63709   0.75600   0.93639   0.00000  Uiso   1.00
C680   C     0.63416   0.74530   0.94826   0.00000  Uiso   1.00
C681   C     0.63160   0.75325   0.96033   0.00000  Uiso   1.00
C682   C     0.63205   0.77183   0.96040   0.00000  Uiso   1.00
C683   C     0.65538   0.84854   0.87615   0.00000  Uiso   1.00
C684   C     0.66152   0.84233   0.86486   0.00000  Uiso   1.00
C685   C     0.66513   0.82637   0.86544   0.00000  Uiso   1.00
C686   C     0.66263   0.81584   0.87733   0.00000  Uiso   1.00
H265   H     0.65684   0.79912   0.90075   0.00000  Uiso   1.00
H266   H     0.64424   0.85678   0.89876   0.00000  Uiso   1.00
H267   H     0.62603   0.82869   0.95675   0.00000  Uiso   1.00
H268   H     0.64786   0.87169   0.91650   0.00000  Uiso   1.00
H269   H     0.63372   0.80661   0.95797   0.00000  Uiso   1.00
H270   H     0.64201   0.77854   0.91569   0.00000  Uiso   1.00
H271   H     0.63909   0.74973   0.92720   0.00000  Uiso   1.00
O133   O     0.63383   0.72679   0.94832   0.00000  Uiso   1.00
O134   O     0.62861   0.74241   0.97213   0.00000  Uiso   1.00
H272   H     0.63001   0.77773   0.96974   0.00000  Uiso   1.00
H273   H     0.65276   0.86127   0.87547   0.00000  Uiso   1.00
O135   O     0.66445   0.85170   0.85261   0.00000  Uiso   1.00
O136   O     0.67122   0.82154   0.85372   0.00000  Uiso   1.00
H274   H     0.66546   0.80321   0.87752   0.00000  Uiso   1.00
C687   C     0.63910   0.88743   0.93661   0.00000  Uiso   1.00
C688   C     0.63423   0.89424   0.94820   0.00000  Uiso   1.00
C689   C     0.62809   0.88198   0.95972   0.00000  Uiso   1.00
C690   C     0.62687   0.86303   0.95954   0.00000  Uiso   1.00
H275   H     0.64377   0.89701   0.92783   0.00000  Uiso   1.00
O137   O     0.63551   0.91319   0.94851   0.00000  Uiso   1.00
O138   O     0.62349   0.88903   0.97129   0.00000  Uiso   1.00
H276   H     0.62223   0.85382   0.96849   0.00000  Uiso   1.00
C691   C     0.18117   0.81154   0.93642   0.00000  Uiso   1.00
C692   C     0.16907   0.80491   0.92461   0.00000  Uiso   1.00
C693   C     0.17644   0.81627   0.91254   0.00000  Uiso   1.00
C694   C     0.19521   0.83503   0.91255   0.00000  Uiso   1.00
C695   C     0.20653   0.84247   0.92462   0.00000  Uiso   1.00
C696   C     0.20003   0.83031   0.93640   0.00000  Uiso   1.00
C697   C     0.20240   0.84569   0.90029   0.00000  Uiso   1.00
C698   C     0.19114   0.83887   0.88853   0.00000  Uiso   1.00
C699   C     0.17257   0.82046   0.88855   0.00000  Uiso   1.00
C700   C     0.16568   0.80922   0.90030   0.00000  Uiso   1.00
C701   C     0.17365   0.79935   0.94810   0.00000  Uiso   1.00
C702   C     0.15483   0.78148   0.94833   0.00000  Uiso   1.00
C703   C     0.14273   0.77530   0.93681   0.00000  Uiso   1.00
C704   C     0.14970   0.78700   0.92525   0.00000  Uiso   1.00
C705   C     0.21253   0.83762   0.94796   0.00000  Uiso   1.00
C706   C     0.23027   0.85656   0.94822   0.00000  Uiso   1.00
C707   C     0.23611   0.86888   0.93681   0.00000  Uiso   1.00
C708   C     0.22425   0.86197   0.92531   0.00000  Uiso   1.00
C709   C     0.25385   0.88806   0.93704   0.00000  Uiso   1.00
C710   C     0.26561   0.89488   0.94860   0.00000  Uiso   1.00
C711   C     0.25965   0.88260   0.96011   0.00000  Uiso   1.00
C712   C     0.24210   0.86351   0.95988   0.00000  Uiso   1.00
C713   C     0.16119   0.81347   0.87668   0.00000  Uiso   1.00
C714   C     0.16843   0.82507   0.86509   0.00000  Uiso   1.00
C715   C     0.18655   0.84302   0.86507   0.00000  Uiso   1.00
C716   C     0.19822   0.85017   0.87665   0.00000  Uiso   1.00
H277   H     0.21699   0.85923   0.89938   0.00000  Uiso   1.00
H278   H     0.15196   0.79480   0.89938   0.00000  Uiso   1.00
H279   H     0.18187   0.80328   0.95735   0.00000  Uiso   1.00
H280   H     0.13926   0.78181   0.91701   0.00000  Uiso   1.00
H281   H     0.20906   0.82905   0.95705   0.00000  Uiso   1.00
H282   H     0.22910   0.87255   0.91714   0.00000  Uiso   1.00
H283   H     0.25859   0.89770   0.92829   0.00000  Uiso   1.00
O139   O     0.28325   0.91386   0.94889   0.00000  Uiso   1.00
O140   O     0.27134   0.88972   0.97168   0.00000  Uiso   1.00
H284   H     0.23771   0.85424   0.96881   0.00000  Uiso   1.00
H285   H     0.14685   0.79933   0.87644   0.00000  Uiso   1.00
O141   O     0.15802   0.81945   0.85314   0.00000  Uiso   1.00
O142   O     0.19224   0.85336   0.85310   0.00000  Uiso   1.00
H286   H     0.21249   0.86439   0.87639   0.00000  Uiso   1.00
C717   C     0.12366   0.75742   0.93700   0.00000  Uiso   1.00
C718   C     0.11674   0.74584   0.94862   0.00000  Uiso   1.00
C719   C     0.12882   0.75212   0.96023   0.00000  Uiso   1.00
C720   C     0.14778   0.76982   0.96005   0.00000  Uiso   1.00
H287   H     0.11417   0.75244   0.92817   0.00000  Uiso   1.00
O143   O     0.09786   0.72809   0.94888   0.00000  Uiso   1.00
O144   O     0.12163   0.74056   0.97184   0.00000  Uiso   1.00
H288   H     0.15689   0.77446   0.96905   0.00000  Uiso   1.00
C721   C     0.04063   0.53249   0.41211   0.00000  Uiso   1.00
C722   C     0.03644   0.53976   0.42410   0.00000  Uiso   1.00
C723   C     0.03175   0.52802   0.43601   0.00000  Uiso   1.00
C724   C     0.03321   0.51005   0.43625   0.00000  Uiso   1.00
C725   C     0.03705   0.50257   0.42422   0.00000  Uiso   1.00
C726   C     0.04156   0.51418   0.41227   0.00000  Uiso   1.00
C727   C     0.03111   0.50021   0.44868   0.00000  Uiso   1.00
C728   C     0.02556   0.50642   0.46024   0.00000  Uiso   1.00
C729   C     0.02211   0.52297   0.45969   0.00000  Uiso   1.00
C730   C     0.02516   0.53350   0.44773   0.00000  Uiso   1.00
C731   C     0.04330   0.54361   0.40016   0.00000  Uiso   1.00
C732   C     0.04349   0.56208   0.40011   0.00000  Uiso   1.00
C733   C     0.04087   0.56997   0.41212   0.00000  Uiso   1.00
C734   C     0.03757   0.55898   0.42391   0.00000  Uiso   1.00
C735   C     0.04722   0.50720   0.40080   0.00000  Uiso   1.00
C736   C     0.04662   0.48854   0.40064   0.00000  Uiso   1.00
C737   C     0.04057   0.47635   0.41213   0.00000  Uiso   1.00
C738   C     0.03584   0.48332   0.42370   0.00000  Uiso   1.00
C739   C     0.03940   0.45729   0.41193   0.00000  Uiso   1.00
C740   C     0.04428   0.45050   0.40035   0.00000  Uiso   1.00
C741   C     0.05044   0.46277   0.38883   0.00000  Uiso   1.00
C742   C     0.05167   0.48172   0.38902   0.00000  Uiso   1.00
C743   C     0.01587   0.52888   0.47123   0.00000  Uiso   1.00
C744   C     0.01335   0.51832   0.48311   0.00000  Uiso   1.00
C745   C     0.01692   0.50233   0.48368   0.00000  Uiso   1.00
C746   C     0.02305   0.49612   0.47238   0.00000  Uiso   1.00
H289   H     0.03418   0.48789   0.44978   0.00000  Uiso   1.00
H290   H     0.02170   0.54562   0.44782   0.00000  Uiso   1.00
H291   H     0.04484   0.53815   0.39059   0.00000  Uiso   1.00
H292   H     0.03646   0.56617   0.43287   0.00000  Uiso   1.00
H293   H     0.05251   0.51606   0.39181   0.00000  Uiso   1.00
H294   H     0.03059   0.47301   0.43203   0.00000  Uiso   1.00
H295   H     0.03471   0.44770   0.42071   0.00000  Uiso   1.00
O145   O     0.04301   0.43155   0.40003   0.00000  Uiso   1.00
O146   O     0.05506   0.45573   0.37726   0.00000  Uiso   1.00
H296   H     0.05632   0.49093   0.38007   0.00000  Uiso   1.00
H297   H     0.01307   0.54152   0.47104   0.00000  Uiso   1.00
O147   O     0.00727   0.52316   0.49484   0.00000  Uiso   1.00
O148   O     0.01397   0.49295   0.49592   0.00000  Uiso   1.00
H298   H     0.02564   0.48337   0.47306   0.00000  Uiso   1.00
C747   C     0.04137   0.58871   0.41217   0.00000  Uiso   1.00
C748   C     0.04431   0.59941   0.40030   0.00000  Uiso   1.00
C749   C     0.04691   0.59149   0.38824   0.00000  Uiso   1.00
C750   C     0.04648   0.57291   0.38816   0.00000  Uiso   1.00
H299   H     0.03935   0.59497   0.42136   0.00000  Uiso   1.00
O149   O     0.04461   0.61792   0.40024   0.00000  Uiso   1.00
O150   O     0.04990   0.60234   0.37643   0.00000  Uiso   1.00
H300   H     0.04854   0.56704   0.37882   0.00000  Uiso   1.00
C751   C     0.47842   0.51445   0.41219   0.00000  Uiso   1.00
C752   C     0.47199   0.50225   0.42394   0.00000  Uiso   1.00
C753   C     0.48328   0.50969   0.43602   0.00000  Uiso   1.00
C754   C     0.50206   0.52844   0.43603   0.00000  Uiso   1.00
C755   C     0.50940   0.53985   0.42397   0.00000  Uiso   1.00
C756   C     0.49732   0.53317   0.41214   0.00000  Uiso   1.00
C757   C     0.51289   0.53539   0.44826   0.00000  Uiso   1.00
C758   C     0.50595   0.52416   0.46001   0.00000  Uiso   1.00
C759   C     0.48729   0.50584   0.46003   0.00000  Uiso   1.00
C760   C     0.47602   0.49907   0.44828   0.00000  Uiso   1.00
C761   C     0.46576   0.50727   0.40070   0.00000  Uiso   1.00
C762   C     0.44810   0.48827   0.40041   0.00000  Uiso   1.00
C763   C     0.44245   0.47580   0.41175   0.00000  Uiso   1.00
C764   C     0.45438   0.48267   0.42323   0.00000  Uiso   1.00
C765   C     0.50492   0.54522   0.40042   0.00000  Uiso   1.00
C766   C     0.52369   0.56316   0.40020   0.00000  Uiso   1.00
C767   C     0.53568   0.56950   0.41176   0.00000  Uiso   1.00
C768   C     0.52869   0.55786   0.42334   0.00000  Uiso   1.00
C769   C     0.55470   0.58743   0.41158   0.00000  Uiso   1.00
C770   C     0.56167   0.59893   0.39993   0.00000  Uiso   1.00
C771   C     0.54968   0.59254   0.38829   0.00000  Uiso   1.00
C772   C     0.53078   0.57475   0.38845   0.00000  Uiso   1.00
C773   C     0.48015   0.49458   0.47192   0.00000  Uiso   1.00
C774   C     0.49186   0.50166   0.48349   0.00000  Uiso   1.00
C775   C     0.51007   0.51952   0.48346   0.00000  Uiso   1.00
C776   C     0.51737   0.53108   0.47186   0.00000  Uiso   1.00
H301   H     0.52673   0.54970   0.44917   0.00000  Uiso   1.00
H302   H     0.46134   0.48563   0.44918   0.00000  Uiso   1.00
H303   H     0.46901   0.51605   0.39171   0.00000  Uiso   1.00
H304   H     0.44972   0.47202   0.43135   0.00000  Uiso   1.00
H305   H     0.49686   0.54106   0.39111   0.00000  Uiso   1.00
H306   H     0.53905   0.56323   0.43162   0.00000  Uiso   1.00
H307   H     0.56412   0.59252   0.42044   0.00000  Uiso   1.00
O151   O     0.58051   0.61673   0.39969   0.00000  Uiso   1.00
O152   O     0.55690   0.60405   0.37667   0.00000  Uiso   1.00
H308   H     0.52174   0.57001   0.37942   0.00000  Uiso   1.00
H309   H     0.46581   0.48043   0.47220   0.00000  Uiso   1.00
O153   O     0.48612   0.49134   0.49548   0.00000  Uiso   1.00
O154   O     0.52051   0.52508   0.49540   0.00000  Uiso   1.00
H310   H     0.53178   0.54515   0.47209   0.00000  Uiso   1.00
C777   C     0.42481   0.45655   0.41148   0.00000  Uiso   1.00
C778   C     0.41295   0.44980   0.39996   0.00000  Uiso   1.00
C779   C     0.41872   0.46222   0.38853   0.00000  Uiso   1.00
C780   C     0.43616   0.48139   0.38879   0.00000  Uiso   1.00
H311   H     0.42021   0.44681   0.42019   0.00000  Uiso   1.00
O155   O     0.39541   0.43075   0.39964   0.00000  Uiso   1.00
O156   O     0.40695   0.45517   0.37699   0.00000  Uiso   1.00
H312   H     0.44041   0.49077   0.37992   0.00000  Uiso   1.00
C781   C     0.47184   0.97515   0.42405   0.00000  Uiso   1.00
C782   C     0.47910   0.97096   0.41205   0.00000  Uiso   1.00
C783   C     0.49740   0.97002   0.41222   0.00000  Uiso   1.00
C784   C     0.50901   0.97454   0.42418   0.00000  Uiso   1.00
C785   C     0.50154   0.97837   0.43621   0.00000  Uiso   1.00
C786   C     0.48358   0.97984   0.43596   0.00000  Uiso   1.00
C787   C     0.52826   0.97575   0.42366   0.00000  Uiso   1.00
C788   C     0.53524   0.97103   0.41209   0.00000  Uiso   1.00
C789   C     0.52303   0.96496   0.40060   0.00000  Uiso   1.00
C790   C     0.50437   0.96436   0.40075   0.00000  Uiso   1.00
C791   C     0.45261   0.97400   0.42386   0.00000  Uiso   1.00
C792   C     0.44162   0.97070   0.41207   0.00000  Uiso   1.00
C793   C     0.44951   0.96810   0.40005   0.00000  Uiso   1.00
C794   C     0.46798   0.96829   0.40010   0.00000  Uiso   1.00
C795   C     0.47812   0.98647   0.44767   0.00000  Uiso   1.00
C796   C     0.48864   0.98950   0.45964   0.00000  Uiso   1.00
C797   C     0.50516   0.98601   0.46020   0.00000  Uiso   1.00
C798   C     0.51137   0.98045   0.44864   0.00000  Uiso   1.00
C799   C     0.51544   0.98850   0.47235   0.00000  Uiso   1.00
C800   C     0.50923   0.99464   0.48365   0.00000  Uiso   1.00
C801   C     0.49327   0.99824   0.48306   0.00000  Uiso   1.00
C802   C     0.48274   0.99575   0.47117   0.00000  Uiso   1.00
C803   C     0.52985   0.95990   0.38897   0.00000  Uiso   1.00
C804   C     0.54880   0.96114   0.38879   0.00000  Uiso   1.00
C805   C     0.56109   0.96733   0.40030   0.00000  Uiso   1.00
C806   C     0.55430   0.97222   0.41189   0.00000  Uiso   1.00
H313   H     0.53857   0.98100   0.43200   0.00000  Uiso   1.00
H314   H     0.49551   0.95906   0.39176   0.00000  Uiso   1.00
H315   H     0.44543   0.97510   0.43282   0.00000  Uiso   1.00
H316   H     0.47344   0.96677   0.39053   0.00000  Uiso   1.00
H317   H     0.46602   0.98996   0.44775   0.00000  Uiso   1.00
H318   H     0.52367   0.97736   0.44975   0.00000  Uiso   1.00
H319   H     0.52817   0.98588   0.47304   0.00000  Uiso   1.00
O157   O     0.51859   0.99755   0.49590   0.00000  Uiso   1.00
O158   O     0.48844   1.00434   0.49479   0.00000  Uiso   1.00
H320   H     0.47011   0.99857   0.47098   0.00000  Uiso   1.00
H321   H     0.52062   0.95523   0.38002   0.00000  Uiso   1.00
O159   O     0.55583   0.95651   0.37722   0.00000  Uiso   1.00
O160   O     0.58005   0.96864   0.39999   0.00000  Uiso   1.00
H322   H     0.56389   0.97692   0.42067   0.00000  Uiso   1.00
C807   C     0.43867   0.96512   0.38810   0.00000  Uiso   1.00
C808   C     0.42009   0.96468   0.38818   0.00000  Uiso   1.00
C809   C     0.41217   0.96725   0.40024   0.00000  Uiso   1.00
C810   C     0.42287   0.97018   0.41212   0.00000  Uiso   1.00
H323   H     0.44455   0.96308   0.37876   0.00000  Uiso   1.00
O161   O     0.40924   0.96169   0.37637   0.00000  Uiso   1.00
O162   O     0.39366   0.96694   0.40019   0.00000  Uiso   1.00
H324   H     0.41662   0.97219   0.42131   0.00000  Uiso   1.00
C811   C     0.83611   0.70347   0.25769   0.00000  Uiso   1.00
C812   C     0.84772   0.70797   0.26966   0.00000  Uiso   1.00
C813   C     0.86602   0.70704   0.26982   0.00000  Uiso   1.00
C814   C     0.87328   0.70285   0.25783   0.00000  Uiso   1.00
C815   C     0.86154   0.69816   0.24591   0.00000  Uiso   1.00
C816   C     0.84359   0.69964   0.24566   0.00000  Uiso   1.00
C817   C     0.89251   0.70399   0.25802   0.00000  Uiso   1.00
C818   C     0.90350   0.70730   0.26981   0.00000  Uiso   1.00
C819   C     0.89561   0.70990   0.28182   0.00000  Uiso   1.00
C820   C     0.87715   0.70971   0.28177   0.00000  Uiso   1.00
C821   C     0.81687   0.70227   0.25821   0.00000  Uiso   1.00
C822   C     0.80989   0.70698   0.26978   0.00000  Uiso   1.00
C823   C     0.82207   0.71302   0.28128   0.00000  Uiso   1.00
C824   C     0.84073   0.71361   0.28113   0.00000  Uiso   1.00
C825   C     0.83376   0.69756   0.23323   0.00000  Uiso   1.00
C826   C     0.83997   0.69199   0.22167   0.00000  Uiso   1.00
C827   C     0.85648   0.68850   0.22224   0.00000  Uiso   1.00
C828   C     0.86700   0.69153   0.23420   0.00000  Uiso   1.00
C829   C     0.86238   0.68224   0.21070   0.00000  Uiso   1.00
C830   C     0.85184   0.67974   0.19881   0.00000  Uiso   1.00
C831   C     0.83589   0.68336   0.19822   0.00000  Uiso   1.00
C832   C     0.82969   0.68951   0.20952   0.00000  Uiso   1.00
C833   C     0.90645   0.71289   0.29377   0.00000  Uiso   1.00
C834   C     0.92503   0.71333   0.29370   0.00000  Uiso   1.00
C835   C     0.93295   0.71075   0.28164   0.00000  Uiso   1.00
C836   C     0.92225   0.70781   0.26976   0.00000  Uiso   1.00
H325   H     0.89969   0.70290   0.24906   0.00000  Uiso   1.00
H326   H     0.87169   0.71124   0.29135   0.00000  Uiso   1.00
H327   H     0.80657   0.69705   0.24986   0.00000  Uiso   1.00
H328   H     0.84958   0.71888   0.29013   0.00000  Uiso   1.00
H329   H     0.82146   0.70065   0.23212   0.00000  Uiso   1.00
H330   H     0.87910   0.68804   0.23413   0.00000  Uiso   1.00
H331   H     0.87500   0.67941   0.21090   0.00000  Uiso   1.00
O163   O     0.85667   0.67364   0.18709   0.00000  Uiso   1.00
O164   O     0.82653   0.68043   0.18597   0.00000  Uiso   1.00
H332   H     0.81696   0.69214   0.20883   0.00000  Uiso   1.00
H333   H     0.90058   0.71494   0.30312   0.00000  Uiso   1.00
O165   O     0.93589   0.71632   0.30551   0.00000  Uiso   1.00
O166   O     0.95146   0.71107   0.28169   0.00000  Uiso   1.00
H334   H     0.92850   0.70579   0.26057   0.00000  Uiso   1.00
C837   C     0.81524   0.71805   0.29291   0.00000  Uiso   1.00
C838   C     0.79629   0.71681   0.29309   0.00000  Uiso   1.00
C839   C     0.78403   0.71067   0.28156   0.00000  Uiso   1.00
C840   C     0.79083   0.70581   0.26997   0.00000  Uiso   1.00
H335   H     0.82445   0.72269   0.30187   0.00000  Uiso   1.00
O167   O     0.78924   0.72141   0.30466   0.00000  Uiso   1.00
O168   O     0.76508   0.70940   0.28187   0.00000  Uiso   1.00
H336   H     0.78125   0.70114   0.26119   0.00000  Uiso   1.00
C841   C     0.30355   0.16384   0.26962   0.00000  Uiso   1.00
C842   C     0.30808   0.17546   0.25767   0.00000  Uiso   1.00
C843   C     0.31191   0.16798   0.24564   0.00000  Uiso   1.00
C844   C     0.31336   0.15000   0.24587   0.00000  Uiso   1.00
C845   C     0.30867   0.13827   0.25779   0.00000  Uiso   1.00
C846   C     0.30448   0.14553   0.26978   0.00000  Uiso   1.00
C847   C     0.31993   0.14451   0.23415   0.00000  Uiso   1.00
C848   C     0.32299   0.15505   0.22220   0.00000  Uiso   1.00
C849   C     0.31957   0.17161   0.22165   0.00000  Uiso   1.00
C850   C     0.31403   0.17783   0.23322   0.00000  Uiso   1.00
C851   C     0.29788   0.17081   0.28109   0.00000  Uiso   1.00
C852   C     0.29848   0.18948   0.28125   0.00000  Uiso   1.00
C853   C     0.30456   0.20168   0.26976   0.00000  Uiso   1.00
C854   C     0.30930   0.19471   0.25820   0.00000  Uiso   1.00
C855   C     0.30180   0.13441   0.28173   0.00000  Uiso   1.00
C856   C     0.30162   0.11594   0.28178   0.00000  Uiso   1.00
C857   C     0.30425   0.10806   0.26977   0.00000  Uiso   1.00
C858   C     0.30756   0.11904   0.25799   0.00000  Uiso   1.00
C859   C     0.30377   0.08932   0.26972   0.00000  Uiso   1.00
C860   C     0.30083   0.07862   0.28160   0.00000  Uiso   1.00
C861   C     0.29821   0.08654   0.29366   0.00000  Uiso   1.00
C862   C     0.29863   0.10511   0.29373   0.00000  Uiso   1.00
C863   C     0.32209   0.18192   0.20951   0.00000  Uiso   1.00
C864   C     0.32821   0.17570   0.19821   0.00000  Uiso   1.00
C865   C     0.33175   0.15969   0.19878   0.00000  Uiso   1.00
C866   C     0.32921   0.14913   0.21066   0.00000  Uiso   1.00
H337   H     0.32337   0.13237   0.23406   0.00000  Uiso   1.00
H338   H     0.31098   0.19017   0.23211   0.00000  Uiso   1.00
H339   H     0.29257   0.16195   0.29007   0.00000  Uiso   1.00
H340   H     0.31455   0.20503   0.24987   0.00000  Uiso   1.00
H341   H     0.30026   0.13987   0.29130   0.00000  Uiso   1.00
H342   H     0.30868   0.11186   0.24903   0.00000  Uiso   1.00
H343   H     0.30581   0.08308   0.26054   0.00000  Uiso   1.00
O169   O     0.30054   0.06012   0.28165   0.00000  Uiso   1.00
O170   O     0.29521   0.07568   0.30546   0.00000  Uiso   1.00
H344   H     0.29656   0.11098   0.30307   0.00000  Uiso   1.00
H345   H     0.31953   0.19469   0.20884   0.00000  Uiso   1.00
O171   O     0.33118   0.18509   0.18597   0.00000  Uiso   1.00
O172   O     0.33782   0.15485   0.18705   0.00000  Uiso   1.00
H346   H     0.33198   0.13646   0.21084   0.00000  Uiso   1.00
C867   C     0.30575   0.22075   0.26997   0.00000  Uiso   1.00
C868   C     0.30086   0.22754   0.28155   0.00000  Uiso   1.00
C869   C     0.29466   0.21525   0.29306   0.00000  Uiso   1.00
C870   C     0.29342   0.19629   0.29287   0.00000  Uiso   1.00
H347   H     0.31046   0.23035   0.26120   0.00000  Uiso   1.00
O173   O     0.30216   0.24650   0.28188   0.00000  Uiso   1.00
O174   O     0.29002   0.22228   0.30463   0.00000  Uiso   1.00
H348   H     0.28875   0.18707   0.30182   0.00000  Uiso   1.00
C871   C     0.84788   0.14480   0.26973   0.00000  Uiso   1.00
C872   C     0.83570   0.13827   0.25795   0.00000  Uiso   1.00
C873   C     0.84310   0.14961   0.24588   0.00000  Uiso   1.00
C874   C     0.86191   0.16832   0.24587   0.00000  Uiso   1.00
C875   C     0.87324   0.17574   0.25794   0.00000  Uiso   1.00
C876   C     0.86669   0.16361   0.26973   0.00000  Uiso   1.00
C877   C     0.86910   0.17896   0.23360   0.00000  Uiso   1.00
C878   C     0.85782   0.17215   0.22186   0.00000  Uiso   1.00
C879   C     0.83923   0.15376   0.22188   0.00000  Uiso   1.00
C880   C     0.83233   0.14254   0.23363   0.00000  Uiso   1.00
C881   C     0.84050   0.13241   0.28133   0.00000  Uiso   1.00
C882   C     0.82160   0.11464   0.28158   0.00000  Uiso   1.00
C883   C     0.80933   0.10868   0.27015   0.00000  Uiso   1.00
C884   C     0.81624   0.12048   0.25862   0.00000  Uiso   1.00
C885   C     0.87906   0.17103   0.28135   0.00000  Uiso   1.00
C886   C     0.89685   0.18992   0.28159   0.00000  Uiso   1.00
C887   C     0.90282   0.20215   0.27014   0.00000  Uiso   1.00
C888   C     0.89101   0.19521   0.25861   0.00000  Uiso   1.00
C889   C     0.92060   0.22130   0.27035   0.00000  Uiso   1.00
C890   C     0.93230   0.22817   0.28194   0.00000  Uiso   1.00
C891   C     0.92623   0.21596   0.29348   0.00000  Uiso   1.00
C892   C     0.90862   0.19692   0.29328   0.00000  Uiso   1.00
C893   C     0.82785   0.14677   0.21001   0.00000  Uiso   1.00
C894   C     0.83510   0.15836   0.19842   0.00000  Uiso   1.00
C895   C     0.85324   0.17630   0.19840   0.00000  Uiso   1.00
C896   C     0.86492   0.18344   0.20997   0.00000  Uiso   1.00
H349   H     0.88370   0.19248   0.23268   0.00000  Uiso   1.00
H350   H     0.81863   0.12809   0.23273   0.00000  Uiso   1.00
H351   H     0.84895   0.13605   0.29048   0.00000  Uiso   1.00
H352   H     0.80570   0.11549   0.25044   0.00000  Uiso   1.00
H353   H     0.87537   0.16266   0.29052   0.00000  Uiso   1.00
H354   H     0.89595   0.20574   0.25042   0.00000  Uiso   1.00
H355   H     0.92542   0.23088   0.26157   0.00000  Uiso   1.00
O175   O     0.94997   0.24711   0.28221   0.00000  Uiso   1.00
O176   O     0.93789   0.22311   0.30506   0.00000  Uiso   1.00
H356   H     0.90415   0.18772   0.30223   0.00000  Uiso   1.00
H357   H     0.81349   0.13265   0.20978   0.00000  Uiso   1.00
O177   O     0.82468   0.15276   0.18646   0.00000  Uiso   1.00
O178   O     0.85895   0.18664   0.18642   0.00000  Uiso   1.00
H358   H     0.87920   0.19765   0.20971   0.00000  Uiso   1.00
C897   C     0.79018   0.09091   0.27037   0.00000  Uiso   1.00
C898   C     0.78334   0.07921   0.28194   0.00000  Uiso   1.00
C899   C     0.79558   0.08527   0.29348   0.00000  Uiso   1.00
C900   C     0.81463   0.10286   0.29326   0.00000  Uiso   1.00
H359   H     0.78058   0.08609   0.26159   0.00000  Uiso   1.00
O179   O     0.76439   0.06155   0.28223   0.00000  Uiso   1.00
O180   O     0.78846   0.07362   0.30505   0.00000  Uiso   1.00
H360   H     0.82387   0.10733   0.30221   0.00000  Uiso   1.00
C901   C     0.70729   0.86579   0.74542   0.00000  Uiso   1.00
C902   C     0.70309   0.87306   0.75741   0.00000  Uiso   1.00
C903   C     0.69840   0.86132   0.76932   0.00000  Uiso   1.00
C904   C     0.69988   0.84337   0.76957   0.00000  Uiso   1.00
C905   C     0.70370   0.83588   0.75754   0.00000  Uiso   1.00
C906   C     0.70822   0.84749   0.74558   0.00000  Uiso   1.00
C907   C     0.69779   0.83354   0.78200   0.00000  Uiso   1.00
C908   C     0.69223   0.83975   0.79355   0.00000  Uiso   1.00
C909   C     0.68875   0.85627   0.79299   0.00000  Uiso   1.00
C910   C     0.69178   0.86680   0.78103   0.00000  Uiso   1.00
C911   C     0.70994   0.87691   0.73347   0.00000  Uiso   1.00
C912   C     0.71014   0.89538   0.73342   0.00000  Uiso   1.00
C913   C     0.70754   0.90328   0.74543   0.00000  Uiso   1.00
C914   C     0.70423   0.89230   0.75722   0.00000  Uiso   1.00
C915   C     0.71389   0.84051   0.73412   0.00000  Uiso   1.00
C916   C     0.71329   0.82185   0.73397   0.00000  Uiso   1.00
C917   C     0.70722   0.80965   0.74545   0.00000  Uiso   1.00
C918   C     0.70249   0.81663   0.75702   0.00000  Uiso   1.00
C919   C     0.70603   0.79058   0.74525   0.00000  Uiso   1.00
C920   C     0.71092   0.78379   0.73367   0.00000  Uiso   1.00
C921   C     0.71712   0.79607   0.72216   0.00000  Uiso   1.00
C922   C     0.71836   0.81503   0.72234   0.00000  Uiso   1.00
C923   C     0.68248   0.86217   0.80453   0.00000  Uiso   1.00
C924   C     0.67998   0.85163   0.81641   0.00000  Uiso   1.00
C925   C     0.68359   0.83567   0.81700   0.00000  Uiso   1.00
C926   C     0.68974   0.82947   0.80570   0.00000  Uiso   1.00
H361   H     0.70087   0.82123   0.78310   0.00000  Uiso   1.00
H362   H     0.68831   0.87891   0.78111   0.00000  Uiso   1.00
H363   H     0.71146   0.87143   0.72390   0.00000  Uiso   1.00
H364   H     0.70313   0.89948   0.76618   0.00000  Uiso   1.00
H365   H     0.71919   0.84937   0.72513   0.00000  Uiso   1.00
H366   H     0.69724   0.80632   0.76535   0.00000  Uiso   1.00
H367   H     0.70132   0.78099   0.75402   0.00000  Uiso   1.00
O181   O     0.70961   0.76482   0.73335   0.00000  Uiso   1.00
O182   O     0.72176   0.78904   0.71060   0.00000  Uiso   1.00
H368   H     0.72303   0.82425   0.71340   0.00000  Uiso   1.00
H369   H     0.67966   0.87480   0.80433   0.00000  Uiso   1.00
O183   O     0.67387   0.85646   0.82814   0.00000  Uiso   1.00
O184   O     0.68066   0.82630   0.82925   0.00000  Uiso   1.00
H370   H     0.69236   0.81674   0.80639   0.00000  Uiso   1.00
C927   C     0.70806   0.92203   0.74548   0.00000  Uiso   1.00
C928   C     0.71099   0.93273   0.73360   0.00000  Uiso   1.00
C929   C     0.71357   0.92479   0.72154   0.00000  Uiso   1.00
C930   C     0.71312   0.90621   0.72147   0.00000  Uiso   1.00
H371   H     0.70605   0.92830   0.75467   0.00000  Uiso   1.00
O185   O     0.71132   0.95124   0.73354   0.00000  Uiso   1.00
O186   O     0.71655   0.93563   0.70973   0.00000  Uiso   1.00
H372   H     0.71516   0.90032   0.71213   0.00000  Uiso   1.00
C931   C     0.14510   0.84777   0.74551   0.00000  Uiso   1.00
C932   C     0.13868   0.83555   0.75725   0.00000  Uiso   1.00
C933   C     0.14997   0.84299   0.76933   0.00000  Uiso   1.00
C934   C     0.16871   0.86178   0.76935   0.00000  Uiso   1.00
C935   C     0.17606   0.87317   0.75729   0.00000  Uiso   1.00
C936   C     0.16400   0.86649   0.74546   0.00000  Uiso   1.00
C937   C     0.17947   0.86880   0.78160   0.00000  Uiso   1.00
C938   C     0.17257   0.85755   0.79334   0.00000  Uiso   1.00
C939   C     0.15400   0.83914   0.79335   0.00000  Uiso   1.00
C940   C     0.14276   0.83232   0.78159   0.00000  Uiso   1.00
C941   C     0.13244   0.84060   0.73401   0.00000  Uiso   1.00
C942   C     0.11478   0.82159   0.73372   0.00000  Uiso   1.00
C943   C     0.10913   0.80912   0.74505   0.00000  Uiso   1.00
C944   C     0.12105   0.81598   0.75654   0.00000  Uiso   1.00
C945   C     0.17161   0.87854   0.73374   0.00000  Uiso   1.00
C946   C     0.19038   0.89647   0.73352   0.00000  Uiso   1.00
C947   C     0.20239   0.90279   0.74508   0.00000  Uiso   1.00
C948   C     0.19538   0.89115   0.75666   0.00000  Uiso   1.00
C949   C     0.22141   0.92071   0.74490   0.00000  Uiso   1.00
C950   C     0.22838   0.93221   0.73326   0.00000  Uiso   1.00
C951   C     0.21639   0.92583   0.72162   0.00000  Uiso   1.00
C952   C     0.19748   0.90806   0.72177   0.00000  Uiso   1.00
C953   C     0.14690   0.82783   0.80522   0.00000  Uiso   1.00
C954   C     0.15857   0.83497   0.81681   0.00000  Uiso   1.00
C955   C     0.17669   0.85292   0.81680   0.00000  Uiso   1.00
C956   C     0.18394   0.86452   0.80521   0.00000  Uiso   1.00
H373   H     0.19321   0.88320   0.78253   0.00000  Uiso   1.00
H374   H     0.12814   0.81880   0.78248   0.00000  Uiso   1.00
H375   H     0.13569   0.84938   0.72503   0.00000  Uiso   1.00
H376   H     0.11637   0.80532   0.76465   0.00000  Uiso   1.00
H377   H     0.16356   0.87437   0.72442   0.00000  Uiso   1.00
H378   H     0.20576   0.89646   0.76493   0.00000  Uiso   1.00
H379   H     0.23084   0.92578   0.75376   0.00000  Uiso   1.00
O187   O     0.24723   0.95001   0.73301   0.00000  Uiso   1.00
O188   O     0.22361   0.93735   0.70999   0.00000  Uiso   1.00
H380   H     0.18844   0.90333   0.71275   0.00000  Uiso   1.00
H381   H     0.13263   0.81361   0.80548   0.00000  Uiso   1.00
O189   O     0.15287   0.82462   0.82878   0.00000  Uiso   1.00
O190   O     0.18710   0.85853   0.82875   0.00000  Uiso   1.00
H382   H     0.19829   0.87866   0.80545   0.00000  Uiso   1.00
C957   C     0.09148   0.78987   0.74479   0.00000  Uiso   1.00
C958   C     0.07962   0.78313   0.73327   0.00000  Uiso   1.00
C959   C     0.08540   0.79556   0.72183   0.00000  Uiso   1.00
C960   C     0.10284   0.81472   0.72210   0.00000  Uiso   1.00
H383   H     0.08688   0.78013   0.75349   0.00000  Uiso   1.00
O191   O     0.06207   0.76408   0.73294   0.00000  Uiso   1.00
O192   O     0.07362   0.78851   0.71029   0.00000  Uiso   1.00
H384   H     0.10709   0.82410   0.71323   0.00000  Uiso   1.00
C961   C     0.13850   0.30847   0.75740   0.00000  Uiso   1.00
C962   C     0.14575   0.30425   0.74541   0.00000  Uiso   1.00
C963   C     0.16405   0.30332   0.74557   0.00000  Uiso   1.00
C964   C     0.17568   0.30784   0.75753   0.00000  Uiso   1.00
C965   C     0.16820   0.31168   0.76956   0.00000  Uiso   1.00
C966   C     0.15025   0.31316   0.76932   0.00000  Uiso   1.00
C967   C     0.19492   0.30905   0.75701   0.00000  Uiso   1.00
C968   C     0.20189   0.30433   0.74545   0.00000  Uiso   1.00
C969   C     0.18969   0.29826   0.73395   0.00000  Uiso   1.00
C970   C     0.17103   0.29766   0.73411   0.00000  Uiso   1.00
C971   C     0.11929   0.30735   0.75721   0.00000  Uiso   1.00
C972   C     0.10829   0.30403   0.74542   0.00000  Uiso   1.00
C973   C     0.11615   0.30138   0.73341   0.00000  Uiso   1.00
C974   C     0.13461   0.30156   0.73347   0.00000  Uiso   1.00
C975   C     0.14479   0.31978   0.78103   0.00000  Uiso   1.00
C976   C     0.15532   0.32282   0.79299   0.00000  Uiso   1.00
C977   C     0.17184   0.31934   0.79355   0.00000  Uiso   1.00
C978   C     0.17805   0.31378   0.78199   0.00000  Uiso   1.00
C979   C     0.18213   0.32184   0.80571   0.00000  Uiso   1.00
C980   C     0.17592   0.32798   0.81701   0.00000  Uiso   1.00
C981   C     0.15996   0.33158   0.81642   0.00000  Uiso   1.00
C982   C     0.14941   0.32907   0.80453   0.00000  Uiso   1.00
C983   C     0.19651   0.29322   0.72232   0.00000  Uiso   1.00
C984   C     0.21546   0.29446   0.72214   0.00000  Uiso   1.00
C985   C     0.22774   0.30063   0.73366   0.00000  Uiso   1.00
C986   C     0.22095   0.30551   0.74524   0.00000  Uiso   1.00
H385   H     0.20523   0.31430   0.76535   0.00000  Uiso   1.00
H386   H     0.16217   0.29237   0.72511   0.00000  Uiso   1.00
H387   H     0.11212   0.30848   0.76616   0.00000  Uiso   1.00
H388   H     0.14005   0.29999   0.72389   0.00000  Uiso   1.00
H389   H     0.13268   0.32326   0.78112   0.00000  Uiso   1.00
H390   H     0.19035   0.31070   0.78310   0.00000  Uiso   1.00
H391   H     0.19487   0.31923   0.80639   0.00000  Uiso   1.00
O193   O     0.18529   0.33091   0.82926   0.00000  Uiso   1.00
O194   O     0.15513   0.33768   0.82814   0.00000  Uiso   1.00
H392   H     0.13678   0.33188   0.80434   0.00000  Uiso   1.00
H393   H     0.18729   0.28856   0.71337   0.00000  Uiso   1.00
O195   O     0.22250   0.28984   0.71057   0.00000  Uiso   1.00
O196   O     0.24669   0.30191   0.73334   0.00000  Uiso   1.00
H394   H     0.23054   0.31020   0.75403   0.00000  Uiso   1.00
C987   C     0.10530   0.29837   0.72147   0.00000  Uiso   1.00
C988   C     0.08674   0.29796   0.72154   0.00000  Uiso   1.00
C989   C     0.07884   0.30059   0.73360   0.00000  Uiso   1.00
C990   C     0.08956   0.30355   0.74547   0.00000  Uiso   1.00
H395   H     0.11116   0.29629   0.71213   0.00000  Uiso   1.00
O197   O     0.07587   0.29495   0.70974   0.00000  Uiso   1.00
O198   O     0.06035   0.30030   0.73354   0.00000  Uiso   1.00
H396   H     0.08332   0.30560   0.75466   0.00000  Uiso   1.00
C991   C     0.50279   0.03681   0.59099   0.00000  Uiso   1.00
C992   C     0.51440   0.04131   0.60295   0.00000  Uiso   1.00
C993   C     0.53271   0.04038   0.60311   0.00000  Uiso   1.00
C994   C     0.53997   0.03620   0.59112   0.00000  Uiso   1.00
C995   C     0.52822   0.03150   0.57920   0.00000  Uiso   1.00
C996   C     0.51027   0.03298   0.57896   0.00000  Uiso   1.00
C997   C     0.55921   0.03735   0.59130   0.00000  Uiso   1.00
C998   C     0.57019   0.04065   0.60309   0.00000  Uiso   1.00
C999   C     0.56230   0.04324   0.61511   0.00000  Uiso   1.00
C1000  C     0.54383   0.04304   0.61506   0.00000  Uiso   1.00
C1001  C     0.48355   0.03560   0.59151   0.00000  Uiso   1.00
C1002  C     0.47657   0.04032   0.60307   0.00000  Uiso   1.00
C1003  C     0.48876   0.04635   0.61457   0.00000  Uiso   1.00
C1004  C     0.50742   0.04695   0.61442   0.00000  Uiso   1.00
C1005  C     0.50044   0.03089   0.56653   0.00000  Uiso   1.00
C1006  C     0.50664   0.02532   0.55497   0.00000  Uiso   1.00
C1007  C     0.52315   0.02183   0.55553   0.00000  Uiso   1.00
C1008  C     0.53368   0.02487   0.56749   0.00000  Uiso   1.00
C1009  C     0.52905   0.01556   0.54400   0.00000  Uiso   1.00
C1010  C     0.51851   0.01307   0.53211   0.00000  Uiso   1.00
C1011  C     0.50255   0.01668   0.53152   0.00000  Uiso   1.00
C1012  C     0.49636   0.02283   0.54281   0.00000  Uiso   1.00
C1013  C     0.57313   0.04621   0.62706   0.00000  Uiso   1.00
C1014  C     0.59171   0.04666   0.62698   0.00000  Uiso   1.00
C1015  C     0.59965   0.04409   0.61492   0.00000  Uiso   1.00
C1016  C     0.58895   0.04117   0.60304   0.00000  Uiso   1.00
H397   H     0.56639   0.03627   0.58234   0.00000  Uiso   1.00
H398   H     0.53837   0.04456   0.62464   0.00000  Uiso   1.00
H399   H     0.47325   0.03037   0.58316   0.00000  Uiso   1.00
H400   H     0.51627   0.05223   0.62342   0.00000  Uiso   1.00
H401   H     0.48813   0.03398   0.56542   0.00000  Uiso   1.00
H402   H     0.54578   0.02137   0.56742   0.00000  Uiso   1.00
H403   H     0.54167   0.01273   0.54419   0.00000  Uiso   1.00
O199   O     0.52334   0.00696   0.52038   0.00000  Uiso   1.00
O200   O     0.49319   0.01375   0.51927   0.00000  Uiso   1.00
H404   H     0.48363   0.02546   0.54213   0.00000  Uiso   1.00
H405   H     0.56725   0.04824   0.63641   0.00000  Uiso   1.00
O201   O     0.60256   0.04963   0.63879   0.00000  Uiso   1.00
O202   O     0.61815   0.04441   0.61497   0.00000  Uiso   1.00
H406   H     0.59520   0.03917   0.59384   0.00000  Uiso   1.00
C1017  C     0.48193   0.05138   0.62621   0.00000  Uiso   1.00
C1018  C     0.46298   0.05015   0.62639   0.00000  Uiso   1.00
C1019  C     0.45072   0.04401   0.61486   0.00000  Uiso   1.00
C1020  C     0.45752   0.03915   0.60327   0.00000  Uiso   1.00
H407   H     0.49114   0.05603   0.63516   0.00000  Uiso   1.00
O203   O     0.45594   0.05475   0.63796   0.00000  Uiso   1.00
O204   O     0.43177   0.04274   0.61517   0.00000  Uiso   1.00
H408   H     0.44794   0.03447   0.59449   0.00000  Uiso   1.00
C1021  C     0.97024   0.49716   0.60296   0.00000  Uiso   1.00
C1022  C     0.97477   0.50878   0.59101   0.00000  Uiso   1.00
C1023  C     0.97860   0.50130   0.57898   0.00000  Uiso   1.00
C1024  C     0.98006   0.48333   0.57922   0.00000  Uiso   1.00
C1025  C     0.97537   0.47159   0.59113   0.00000  Uiso   1.00
C1026  C     0.97118   0.47886   0.60313   0.00000  Uiso   1.00
C1027  C     0.98665   0.47784   0.56750   0.00000  Uiso   1.00
C1028  C     0.98969   0.48838   0.55554   0.00000  Uiso   1.00
C1029  C     0.98625   0.50492   0.55499   0.00000  Uiso   1.00
C1030  C     0.98070   0.51114   0.56655   0.00000  Uiso   1.00
C1031  C     0.96457   0.50414   0.61443   0.00000  Uiso   1.00
C1032  C     0.96516   0.52280   0.61458   0.00000  Uiso   1.00
C1033  C     0.97124   0.53500   0.60310   0.00000  Uiso   1.00
C1034  C     0.97598   0.52803   0.59153   0.00000  Uiso   1.00
C1035  C     0.96852   0.46775   0.61508   0.00000  Uiso   1.00
C1036  C     0.96833   0.44928   0.61513   0.00000  Uiso   1.00
C1037  C     0.97095   0.44139   0.60312   0.00000  Uiso   1.00
C1038  C     0.97425   0.45237   0.59133   0.00000  Uiso   1.00
C1039  C     0.97044   0.42264   0.60307   0.00000  Uiso   1.00
C1040  C     0.96750   0.41194   0.61494   0.00000  Uiso   1.00
C1041  C     0.96491   0.41987   0.62700   0.00000  Uiso   1.00
C1042  C     0.96534   0.43845   0.62707   0.00000  Uiso   1.00
C1043  C     0.98876   0.51522   0.54285   0.00000  Uiso   1.00
C1044  C     0.99488   0.50901   0.53155   0.00000  Uiso   1.00
C1045  C     0.99844   0.49301   0.53212   0.00000  Uiso   1.00
C1046  C     0.99592   0.48246   0.54400   0.00000  Uiso   1.00
H409   H     0.99010   0.46572   0.56741   0.00000  Uiso   1.00
H410   H     0.97764   0.52346   0.56545   0.00000  Uiso   1.00
H411   H     0.95926   0.49527   0.62341   0.00000  Uiso   1.00
H412   H     0.98124   0.53835   0.58320   0.00000  Uiso   1.00
H413   H     0.96699   0.47322   0.62465   0.00000  Uiso   1.00
H414   H     0.97536   0.44519   0.58237   0.00000  Uiso   1.00
H415   H     0.97247   0.41639   0.59388   0.00000  Uiso   1.00
O205   O     0.96719   0.39343   0.61500   0.00000  Uiso   1.00
O206   O     0.96191   0.40902   0.63881   0.00000  Uiso   1.00
H416   H     0.96329   0.44433   0.63642   0.00000  Uiso   1.00
H417   H     0.98617   0.52798   0.54217   0.00000  Uiso   1.00
O207   O     0.99783   0.51839   0.51930   0.00000  Uiso   1.00
O208   O     1.00453   0.48817   0.52039   0.00000  Uiso   1.00
H418   H     0.99871   0.46981   0.54419   0.00000  Uiso   1.00
C1047  C     0.97243   0.55407   0.60330   0.00000  Uiso   1.00
C1048  C     0.96753   0.56086   0.61488   0.00000  Uiso   1.00
C1049  C     0.96133   0.54857   0.62639   0.00000  Uiso   1.00
C1050  C     0.96009   0.52961   0.62620   0.00000  Uiso   1.00
H419   H     0.97714   0.56367   0.59453   0.00000  Uiso   1.00
O209   O     0.96884   0.57982   0.61520   0.00000  Uiso   1.00
O210   O     0.95668   0.55560   0.63795   0.00000  Uiso   1.00
H420   H     0.95541   0.52039   0.63515   0.00000  Uiso   1.00
C1051  C     0.51448   0.47812   0.60309   0.00000  Uiso   1.00
C1052  C     0.50236   0.47150   0.59128   0.00000  Uiso   1.00
C1053  C     0.50971   0.48288   0.57922   0.00000  Uiso   1.00
C1054  C     0.52851   0.50160   0.57921   0.00000  Uiso   1.00
C1055  C     0.53982   0.50904   0.59129   0.00000  Uiso   1.00
C1056  C     0.53336   0.49686   0.60305   0.00000  Uiso   1.00
C1057  C     0.53576   0.51222   0.56695   0.00000  Uiso   1.00
C1058  C     0.52448   0.50544   0.55520   0.00000  Uiso   1.00
C1059  C     0.50583   0.48712   0.55523   0.00000  Uiso   1.00
C1060  C     0.49889   0.47590   0.56698   0.00000  Uiso   1.00
C1061  C     0.50696   0.46595   0.61477   0.00000  Uiso   1.00
C1062  C     0.48814   0.44807   0.61500   0.00000  Uiso   1.00
C1063  C     0.47605   0.44187   0.60349   0.00000  Uiso   1.00
C1064  C     0.48300   0.45356   0.59193   0.00000  Uiso   1.00
C1065  C     0.54593   0.50412   0.61458   0.00000  Uiso   1.00
C1066  C     0.56363   0.52309   0.61485   0.00000  Uiso   1.00
C1067  C     0.56937   0.53549   0.60348   0.00000  Uiso   1.00
C1068  C     0.55748   0.52859   0.59198   0.00000  Uiso   1.00
C1069  C     0.58705   0.55471   0.60372   0.00000  Uiso   1.00
C1070  C     0.59887   0.56150   0.61526   0.00000  Uiso   1.00
C1071  C     0.59302   0.54914   0.62673   0.00000  Uiso   1.00
C1072  C     0.57552   0.53001   0.62649   0.00000  Uiso   1.00
C1073  C     0.49441   0.48018   0.54338   0.00000  Uiso   1.00
C1074  C     0.50170   0.49174   0.53178   0.00000  Uiso   1.00
C1075  C     0.51991   0.50961   0.53174   0.00000  Uiso   1.00
C1076  C     0.53162   0.51670   0.54331   0.00000  Uiso   1.00
H421   H     0.55043   0.52567   0.56604   0.00000  Uiso   1.00
H422   H     0.48509   0.46156   0.56608   0.00000  Uiso   1.00
H423   H     0.51515   0.46994   0.62403   0.00000  Uiso   1.00
H424   H     0.47258   0.44832   0.58368   0.00000  Uiso   1.00
H425   H     0.54255   0.49548   0.62363   0.00000  Uiso   1.00
H426   H     0.56221   0.53921   0.58385   0.00000  Uiso   1.00
H427   H     0.59172   0.56440   0.59500   0.00000  Uiso   1.00
O211   O     0.61646   0.58052   0.61557   0.00000  Uiso   1.00
O212   O     0.60476   0.55623   0.63828   0.00000  Uiso   1.00
H428   H     0.57121   0.52069   0.63539   0.00000  Uiso   1.00
H429   H     0.48000   0.46611   0.54315   0.00000  Uiso   1.00
O213   O     0.49126   0.48617   0.51983   0.00000  Uiso   1.00
O214   O     0.52565   0.51991   0.51975   0.00000  Uiso   1.00
H430   H     0.54595   0.53086   0.54303   0.00000  Uiso   1.00
C1077  C     0.45698   0.42399   0.60368   0.00000  Uiso   1.00
C1078  C     0.45006   0.41243   0.61531   0.00000  Uiso   1.00
C1079  C     0.46215   0.41870   0.62691   0.00000  Uiso   1.00
C1080  C     0.48110   0.43642   0.62673   0.00000  Uiso   1.00
H431   H     0.44749   0.41900   0.59486   0.00000  Uiso   1.00
O215   O     0.43118   0.39468   0.61556   0.00000  Uiso   1.00
O216   O     0.45496   0.40714   0.63852   0.00000  Uiso   1.00
H432   H     0.49021   0.44106   0.63573   0.00000  Uiso   1.00
Cu1    Cu    0.33924   0.17237   0.17428   0.00000  Uiso   1.00
Cu2    Cu    0.83924   0.17229   0.17427   0.00000  Uiso   1.00
Cu3    Cu    0.83922   0.67232   0.17429   0.00000  Uiso   1.00
Cu4    Cu    0.17259   0.33902   0.84094   0.00000  Uiso   1.00
Cu5    Cu    0.67255   0.83900   0.84093   0.00000  Uiso   1.00
Cu6    Cu    0.17256   0.83899   0.84094   0.00000  Uiso   1.00
Cu7    Cu    0.00590   0.50567   0.50761   0.00000  Uiso   1.00
Cu8    Cu    0.50589   0.50562   0.50761   0.00000  Uiso   1.00
Cu9    Cu    0.50589   0.00565   0.50759   0.00000  Uiso   1.00
Cu10   Cu    0.50591   0.00568   0.00762   0.00000  Uiso   1.00
Cu11   Cu    0.00595   0.50572   0.00764   0.00000  Uiso   1.00
Cu12   Cu    0.50592   0.50572   0.00760   0.00000  Uiso   1.00
Cu13   Cu    0.17256   0.33900   0.34095   0.00000  Uiso   1.00
Cu14   Cu    0.67253   0.83898   0.34093   0.00000  Uiso   1.00
Cu15   Cu    0.17256   0.83902   0.34096   0.00000  Uiso   1.00
Cu16   Cu    0.83921   0.67230   0.67429   0.00000  Uiso   1.00
Cu17   Cu    0.33922   0.17230   0.67427   0.00000  Uiso   1.00
Cu18   Cu    0.83924   0.17231   0.67422   0.00000  Uiso   1.00
Zn1    Zn    0.29102   0.91414   0.96589   0.00000  Uiso   1.00
Zn2    Zn    0.09817   0.38339   0.96555   0.00000  Uiso   1.00
Zn3    Zn    0.62975   0.72084   0.96582   0.00000  Uiso   1.00
Zn4    Zn    0.91445   0.29082   0.04927   0.00000  Uiso   1.00
Zn5    Zn    0.72104   0.62954   0.04939   0.00000  Uiso   1.00
Zn6    Zn    0.38367   0.09798   0.04966   0.00000  Uiso   1.00
Zn7    Zn    0.72082   0.09729   0.04933   0.00000  Uiso   1.00
Zn8    Zn    0.91366   0.62800   0.04966   0.00000  Uiso   1.00
Zn9    Zn    0.38207   0.29058   0.04941   0.00000  Uiso   1.00
Zn10   Zn    0.09740   0.72060   0.96595   0.00000  Uiso   1.00
Zn11   Zn    0.29079   0.38186   0.96584   0.00000  Uiso   1.00
Zn12   Zn    0.62819   0.91346   0.96554   0.00000  Uiso   1.00
Zn13   Zn    0.95766   0.24746   0.29923   0.00000  Uiso   1.00
Zn14   Zn    0.76482   0.71671   0.29890   0.00000  Uiso   1.00
Zn15   Zn    0.29641   0.05414   0.29914   0.00000  Uiso   1.00
Zn16   Zn    0.58105   0.62411   0.38258   0.00000  Uiso   1.00
Zn17   Zn    0.38769   0.96285   0.38269   0.00000  Uiso   1.00
Zn18   Zn    0.05034   0.43129   0.38301   0.00000  Uiso   1.00
Zn19   Zn    0.38745   0.43060   0.38271   0.00000  Uiso   1.00
Zn20   Zn    0.58028   0.96127   0.38296   0.00000  Uiso   1.00
Zn21   Zn    0.04873   0.62389   0.38275   0.00000  Uiso   1.00
Zn22   Zn    0.76408   0.05386   0.29924   0.00000  Uiso   1.00
Zn23   Zn    0.95743   0.71516   0.29918   0.00000  Uiso   1.00
Zn24   Zn    0.29479   0.24674   0.29890   0.00000  Uiso   1.00
Zn25   Zn    0.62433   0.58073   0.63253   0.00000  Uiso   1.00
Zn26   Zn    0.43151   0.05004   0.63221   0.00000  Uiso   1.00
Zn27   Zn    0.96308   0.38747   0.63249   0.00000  Uiso   1.00
Zn28   Zn    0.24776   0.95741   0.71591   0.00000  Uiso   1.00
Zn29   Zn    0.05435   0.29616   0.71605   0.00000  Uiso   1.00
Zn30   Zn    0.71699   0.76458   0.71633   0.00000  Uiso   1.00
Zn31   Zn    0.05412   0.76394   0.71601   0.00000  Uiso   1.00
Zn32   Zn    0.24694   0.29457   0.71631   0.00000  Uiso   1.00
Zn33   Zn    0.71540   0.95720   0.71605   0.00000  Uiso   1.00
Zn34   Zn    0.43073   0.38719   0.63264   0.00000  Uiso   1.00
Zn35   Zn    0.62411   0.04848   0.63247   0.00000  Uiso   1.00
Zn36   Zn    0.96146   0.58006   0.63222   0.00000  Uiso   1.00
loop_
_geom_bond_atom_site_label_1
_geom_bond_atom_site_label_2
_geom_bond_distance
_geom_bond_site_symmetry_2
_ccdc_geom_bond_type
C1     C2      1.428   .     A
C1     C6      1.431   1_545 A
C1     C11     1.423   .     A
C2     C3      1.426   .     A
C2     C14     1.422   .     A
C3     C4      1.424   1_545 A
C3     C10     1.422   .     A
C4     C3      1.424   1_565 A
C4     C5      1.427   1_554 A
C4     C7      1.422   1_554 A
C5     C4      1.427   1_556 A
C5     C6      1.428   1_556 A
C5     C18     1.422   .     A
C6     C1      1.431   1_565 A
C6     C5      1.428   1_554 A
C6     C15     1.423   1_554 A
C7     C4      1.422   1_556 A
C7     C8      1.396   1_556 A
C7     H1      1.077   .     S
C8     C7      1.396   1_554 A
C8     C9      1.408   1_565 A
C8     C26     1.409   1_554 A
C9     C8      1.408   1_545 A
C9     C10     1.396   .     A
C9     C23     1.409   .     A
C10    H2      1.077   .     S
C11    C12     1.397   .     A
C11    H3      1.074   .     S
C12    C13     1.404   .     A
C12    C30     1.407   .     A
C13    C14     1.396   .     A
C13    C27     1.407   .     A
C14    H4      1.077   .     S
C15    C6      1.423   1_556 A
C15    C16     1.397   .     A
C15    H5      1.074   1_556 S
C16    C17     1.404   .     A
C16    C22     1.407   .     A
C17    C18     1.396   .     A
C17    C19     1.407   .     A
C18    H6      1.077   .     S
C19    C20     1.397   .     A
C19    H7      1.084   .     S
C20    C21     1.410   .     A
C20    O1      1.396   .     S
C21    C22     1.396   .     A
C21    O2      1.395   .     S
C22    H8      1.084   .     S
C23    C24     1.396   .     A
C23    H9      1.084   .     S
C24    C25     1.372   1_545 A
C24    O3      1.381   .     S
C25    C24     1.372   1_565 A
C25    C26     1.396   1_554 A
C25    O4      1.381   1_554 S
C26    C25     1.396   1_556 A
C26    C8      1.409   1_556 A
C26    H10     1.084   .     S
H5     C15     1.074   1_554 S
O1     Zn1     1.802   .     S
O2     Zn1     1.801   .     S
O3     Cu10    1.812   .     S
O4     C25     1.381   1_556 S
O4     Cu10    1.812   1_566 S
C27    C28     1.396   .     A
C27    H11     1.084   .     S
C28    C29     1.410   .     A
C28    O5      1.396   .     S
C29    C30     1.396   .     A
C29    O6      1.395   .     S
C30    H12     1.084   .     S
O5     Zn6     1.802   .     S
O6     Zn6     1.800   .     S
C31    C32     1.424   1_655 A
C31    C36     1.427   .     A
C31    C41     1.422   .     A
C32    C31     1.424   1_455 A
C32    C33     1.427   1_554 A
C32    C44     1.422   1_554 A
C33    C32     1.427   1_556 A
C33    C34     1.428   1_556 A
C33    C40     1.422   .     A
C34    C33     1.428   1_554 A
C34    C35     1.431   1_455 A
C34    C37     1.423   1_554 A
C35    C34     1.431   1_655 A
C35    C36     1.427   .     A
C35    C48     1.423   .     A
C36    C45     1.422   .     A
C37    C34     1.423   1_556 A
C37    C38     1.397   .     A
C37    H13     1.074   1_556 S
C38    C39     1.404   .     A
C38    C56     1.407   .     A
C39    C40     1.396   .     A
C39    C53     1.407   .     A
C40    H14     1.077   .     S
C41    C42     1.396   .     A
C41    H15     1.077   .     S
C42    C43     1.408   1_655 A
C42    C60     1.409   .     A
C43    C42     1.408   1_455 A
C43    C44     1.396   1_554 A
C43    C57     1.409   1_554 A
C44    C32     1.422   1_556 A
C44    C43     1.396   1_556 A
C44    H16     1.077   .     S
C45    C46     1.396   .     A
C45    H17     1.077   .     S
C46    C47     1.404   .     A
C46    C52     1.407   .     A
C47    C48     1.397   .     A
C47    C49     1.407   .     A
C48    H18     1.074   .     S
C49    C50     1.396   .     A
C49    H19     1.084   .     S
C50    C51     1.410   .     A
C50    O7      1.395   .     S
C51    C52     1.397   .     A
C51    O8      1.396   .     S
C52    H20     1.084   .     S
C53    C54     1.397   .     A
C53    H21     1.084   .     S
C54    C55     1.410   .     A
C54    O9      1.396   .     S
C55    C56     1.396   .     A
C55    O10     1.395   .     S
C56    H22     1.084   .     S
H13    C37     1.074   1_554 S
O7     Zn4     1.801   .     S
O8     Zn4     1.802   .     S
O9     Zn2     1.802   .     S
O10    Zn2     1.800   .     S
C57    C43     1.409   1_556 A
C57    C58     1.396   1_556 A
C57    H23     1.084   .     S
C58    C57     1.396   1_554 A
C58    C59     1.372   1_455 A
C58    O11     1.381   1_554 S
C59    C58     1.372   1_655 A
C59    C60     1.396   .     A
C59    O12     1.381   .     S
C60    H24     1.084   .     S
O11    C58     1.381   1_556 S
O11    Cu11    1.812   1_556 S
O12    Cu11    1.813   1_655 S
C61    C62     1.427   .     A
C61    C66     1.427   1_554 A
C61    C71     1.421   1_554 A
C62    C63     1.427   .     A
C62    C74     1.421   .     A
C63    C64     1.424   .     A
C63    C70     1.422   .     A
C64    C65     1.425   .     A
C64    C67     1.420   .     A
C65    C66     1.424   1_554 A
C65    C78     1.420   1_554 A
C66    C61     1.427   1_556 A
C66    C65     1.424   1_556 A
C66    C75     1.422   .     A
C67    C68     1.396   .     A
C67    H25     1.078   .     S
C68    C69     1.405   .     A
C68    C86     1.406   .     A
C69    C70     1.397   .     A
C69    C83     1.407   .     A
C70    H26     1.077   .     S
C71    C61     1.421   1_556 A
C71    C72     1.396   1_556 A
C71    H27     1.077   .     S
C72    C71     1.396   1_554 A
C72    C73     1.408   .     A
C72    C90     1.409   1_554 A
C73    C74     1.396   .     A
C73    C87     1.409   .     A
C74    H28     1.076   .     S
C75    C76     1.397   .     A
C75    H29     1.077   .     S
C76    C77     1.405   .     A
C76    C82     1.407   .     A
C77    C78     1.396   .     A
C77    C79     1.406   .     A
C78    C65     1.420   1_556 A
C78    H30     1.078   1_556 S
C79    C80     1.396   .     A
C79    H31     1.084   .     S
C80    C81     1.410   .     A
C80    O13     1.395   .     S
C81    C82     1.397   .     A
C81    O14     1.395   .     S
C82    H32     1.084   .     S
C83    C84     1.396   .     A
C83    H33     1.084   .     S
C84    C85     1.410   .     A
C84    O15     1.395   .     S
C85    C86     1.396   .     A
C85    O16     1.395   .     S
C86    H34     1.084   .     S
H30    C78     1.078   1_554 S
O13    Zn3     1.800   .     S
O14    Zn3     1.801   .     S
O15    Zn5     1.801   .     S
O16    Zn5     1.800   .     S
C87    C88     1.395   .     A
C87    H35     1.084   .     S
C88    C89     1.372   .     A
C88    O17     1.381   .     S
C89    C90     1.395   1_554 A
C89    O18     1.381   1_554 S
C90    C72     1.409   1_556 A
C90    C89     1.395   1_556 A
C90    H36     1.084   .     S
O17    Cu12    1.812   .     S
O18    C89     1.381   1_556 S
O18    Cu12    1.812   1_556 S
C91    C92     1.425   1_545 A
C91    C96     1.427   .     A
C91    C101    1.422   .     A
C92    C91     1.425   1_565 A
C92    C93     1.426   1_554 A
C92    C104    1.422   1_554 A
C93    C92     1.426   1_556 A
C93    C94     1.428   1_556 A
C93    C100    1.422   .     A
C94    C93     1.428   1_554 A
C94    C95     1.431   1_565 A
C94    C97     1.423   1_554 A
C95    C94     1.431   1_545 A
C95    C96     1.428   .     A
C95    C108    1.423   .     A
C96    C105    1.422   .     A
C97    C94     1.423   1_556 A
C97    C98     1.397   .     A
C97    H37     1.074   1_556 S
C98    C99     1.404   .     A
C98    C116    1.407   .     A
C99    C100    1.395   .     A
C99    C113    1.407   .     A
C100   H38     1.077   .     S
C101   C102    1.396   .     A
C101   H39     1.077   .     S
C102   C103    1.408   1_545 A
C102   C120    1.409   .     A
C103   C102    1.408   1_565 A
C103   C104    1.396   1_554 A
C103   C117    1.409   1_554 A
C104   C103    1.396   1_556 A
C104   C92     1.422   1_556 A
C104   H40     1.077   .     S
C105   C106    1.396   .     A
C105   H41     1.077   .     S
C106   C107    1.404   .     A
C106   C112    1.407   .     A
C107   C108    1.397   .     A
C107   C109    1.407   .     A
C108   H42     1.074   .     S
C109   C110    1.396   .     A
C109   H43     1.084   .     S
C110   C111    1.410   .     A
C110   O19     1.395   .     S
C111   C112    1.397   .     A
C111   O20     1.396   .     S
C112   H44     1.084   .     S
C113   C114    1.397   .     A
C113   H45     1.084   .     S
C114   C115    1.410   .     A
C114   O21     1.396   .     S
C115   C116    1.396   .     A
C115   O22     1.395   .     S
C116   H46     1.084   .     S
H37    C97     1.074   1_554 S
O19    Zn7     1.801   .     S
O20    Zn7     1.802   .     S
O21    Zn12    1.802   .     S
O22    Zn12    1.800   .     S
C117   C103    1.409   1_556 A
C117   C118    1.396   1_556 A
C117   H47     1.084   .     S
C118   C117    1.396   1_554 A
C118   C119    1.372   1_565 A
C118   O23     1.381   1_554 S
C119   C118    1.372   1_545 A
C119   C120    1.396   .     A
C119   O24     1.381   .     S
C120   H48     1.084   .     S
O23    C118    1.381   1_556 S
O23    Cu10    1.812   1_566 S
O24    Cu10    1.813   .     S
C121   C122    1.428   .     A
C121   C126    1.431   1_655 A
C121   C131    1.423   .     A
C122   C123    1.426   .     A
C122   C134    1.422   .     A
C123   C124    1.425   1_655 A
C123   C130    1.422   .     A
C124   C123    1.425   1_455 A
C124   C125    1.427   1_554 A
C124   C127    1.421   1_554 A
C125   C124    1.427   1_556 A
C125   C126    1.427   1_556 A
C125   C138    1.422   .     A
C126   C121    1.431   1_455 A
C126   C125    1.427   1_554 A
C126   C135    1.423   1_554 A
C127   C124    1.421   1_556 A
C127   C128    1.396   1_556 A
C127   H49     1.077   .     S
C128   C127    1.396   1_554 A
C128   C129    1.408   1_455 A
C128   C146    1.409   1_554 A
C129   C128    1.408   1_655 A
C129   C130    1.396   .     A
C129   C143    1.409   .     A
C130   H50     1.077   .     S
C131   C132    1.397   .     A
C131   H51     1.074   .     S
C132   C133    1.404   .     A
C132   C150    1.407   .     A
C133   C134    1.396   .     A
C133   C147    1.407   .     A
C134   H52     1.077   .     S
C135   C126    1.423   1_556 A
C135   C136    1.397   .     A
C135   H53     1.074   1_556 S
C136   C137    1.404   .     A
C136   C142    1.407   .     A
C137   C138    1.396   .     A
C137   C139    1.407   .     A
C138   H54     1.077   .     S
C139   C140    1.397   .     A
C139   H55     1.084   .     S
C140   C141    1.410   .     A
C140   O25     1.396   .     S
C141   C142    1.396   .     A
C141   O26     1.395   .     S
C142   H56     1.084   .     S
C143   C144    1.396   .     A
C143   H57     1.084   .     S
C144   C145    1.372   1_655 A
C144   O27     1.381   .     S
C145   C144    1.372   1_455 A
C145   C146    1.396   1_554 A
C145   O28     1.381   1_554 S
C146   C145    1.396   1_556 A
C146   C128    1.409   1_556 A
C146   H58     1.084   .     S
H53    C135    1.074   1_554 S
O25    Zn10    1.802   .     S
O26    Zn10    1.801   .     S
O27    Cu11    1.812   1_655 S
O28    C145    1.381   1_556 S
O28    Cu11    1.813   1_556 S
C147   C148    1.397   .     A
C147   H59     1.084   .     S
C148   C149    1.410   .     A
C148   O29     1.396   .     S
C149   C150    1.396   .     A
C149   O30     1.395   .     S
C150   H60     1.084   .     S
O29    Zn8     1.802   .     S
O30    Zn8     1.800   .     S
C151   C152    1.424   1_554 A
C151   C156    1.424   .     A
C151   C161    1.420   1_554 A
C152   C151    1.424   1_556 A
C152   C153    1.427   1_556 A
C152   C164    1.422   .     A
C153   C152    1.427   1_554 A
C153   C154    1.428   .     A
C153   C160    1.421   1_554 A
C154   C155    1.428   .     A
C154   C157    1.421   .     A
C155   C156    1.424   .     A
C155   C168    1.422   .     A
C156   C165    1.420   .     A
C157   C158    1.396   .     A
C157   H61     1.076   .     S
C158   C159    1.408   .     A
C158   C176    1.409   .     A
C159   C160    1.396   1_554 A
C159   C173    1.409   1_554 A
C160   C153    1.421   1_556 A
C160   C159    1.396   1_556 A
C160   H62     1.077   .     S
C161   C151    1.420   1_556 A
C161   C162    1.396   .     A
C161   H63     1.078   1_556 S
C162   C163    1.405   .     A
C162   C180    1.406   .     A
C163   C164    1.397   .     A
C163   C177    1.407   .     A
C164   H64     1.077   .     S
C165   C166    1.396   .     A
C165   H65     1.078   .     S
C166   C167    1.405   .     A
C166   C172    1.406   .     A
C167   C168    1.397   .     A
C167   C169    1.407   .     A
C168   H66     1.077   .     S
C169   C170    1.397   .     A
C169   H67     1.084   .     S
C170   C171    1.410   .     A
C170   O31     1.395   .     S
C171   C172    1.396   .     A
C171   O32     1.395   .     S
C172   H68     1.084   .     S
C173   C159    1.409   1_556 A
C173   C174    1.395   1_556 A
C173   H69     1.084   .     S
C174   C173    1.395   1_554 A
C174   C175    1.372   .     A
C174   O33     1.381   1_554 S
C175   C176    1.395   .     A
C175   O34     1.381   .     S
C176   H70     1.084   .     S
H63    C161    1.078   1_554 S
O31    Zn9     1.801   .     S
O32    Zn9     1.800   .     S
O33    C174    1.381   1_556 S
O33    Cu12    1.812   1_556 S
O34    Cu12    1.812   .     S
C177   C178    1.397   .     A
C177   H71     1.084   .     S
C178   C179    1.410   .     A
C178   O35     1.395   .     S
C179   C180    1.396   .     A
C179   O36     1.395   .     S
C180   H72     1.084   .     S
O35    Zn11    1.801   .     S
O36    Zn11    1.800   .     S
C181   C182    1.428   .     A
C181   C186    1.431   .     A
C181   C191    1.423   .     A
C182   C183    1.427   .     A
C182   C194    1.422   .     A
C183   C184    1.424   .     A
C183   C190    1.421   .     A
C184   C185    1.427   .     A
C184   C187    1.422   .     A
C185   C186    1.428   .     A
C185   C198    1.422   .     A
C186   C195    1.423   .     A
C187   C188    1.396   .     A
C187   H73     1.077   .     S
C188   C189    1.408   .     A
C188   C206    1.409   .     A
C189   C190    1.396   .     A
C189   C203    1.409   .     A
C190   H74     1.077   .     S
C191   C192    1.397   .     A
C191   H75     1.074   .     S
C192   C193    1.404   .     A
C192   C210    1.407   .     A
C193   C194    1.396   .     A
C193   C207    1.407   .     A
C194   H76     1.077   .     S
C195   C196    1.397   .     A
C195   H77     1.074   .     S
C196   C197    1.404   .     A
C196   C202    1.407   1_455 A
C197   C198    1.396   .     A
C197   C199    1.407   .     A
C198   H78     1.077   .     S
C199   C200    1.397   1_455 A
C199   H79     1.084   .     S
C200   C199    1.397   1_655 A
C200   C201    1.410   .     A
C200   O37     1.396   .     S
C201   C202    1.396   .     A
C201   O38     1.395   .     S
C202   C196    1.407   1_655 A
C202   H80     1.084   .     S
C203   C204    1.396   .     A
C203   H81     1.084   .     S
C204   C205    1.372   .     A
C204   O39     1.381   .     S
C205   C206    1.396   .     A
C205   O40     1.381   .     S
C206   H82     1.084   .     S
O37    Zn13    1.802   .     S
O38    Zn13    1.801   .     S
O39    Cu13    1.812   .     S
O40    Cu13    1.813   .     S
C207   C208    1.397   .     A
C207   H83     1.084   .     S
C208   C209    1.410   .     A
C208   O41     1.396   .     S
C209   C210    1.396   .     A
C209   O42     1.395   .     S
C210   H84     1.084   .     S
O41    Zn18    1.802   .     S
O42    Zn18    1.800   .     S
C211   C212    1.424   .     A
C211   C216    1.426   .     A
C211   C221    1.422   .     A
C212   C213    1.427   .     A
C212   C224    1.421   .     A
C213   C214    1.428   .     A
C213   C220    1.422   .     A
C214   C215    1.431   .     A
C214   C217    1.423   .     A
C215   C216    1.427   .     A
C215   C228    1.423   .     A
C216   C225    1.422   .     A
C217   C218    1.397   .     A
C217   H85     1.074   .     S
C218   C219    1.404   .     A
C218   C236    1.407   .     A
C219   C220    1.396   .     A
C219   C233    1.407   .     A
C220   H86     1.077   .     S
C221   C222    1.396   .     A
C221   H87     1.077   .     S
C222   C223    1.408   .     A
C222   C240    1.409   .     A
C223   C224    1.396   .     A
C223   C237    1.409   .     A
C224   H88     1.077   .     S
C225   C226    1.396   .     A
C225   H89     1.077   .     S
C226   C227    1.404   .     A
C226   C232    1.407   .     A
C227   C228    1.397   .     A
C227   C229    1.407   .     A
C228   H90     1.074   .     S
C229   C230    1.396   .     A
C229   H91     1.084   .     S
C230   C231    1.410   .     A
C230   O43     1.395   .     S
C231   C232    1.397   .     A
C231   O44     1.396   .     S
C232   H92     1.084   .     S
C233   C234    1.397   .     A
C233   H93     1.084   .     S
C234   C235    1.410   .     A
C234   O45     1.396   .     S
C235   C236    1.396   .     A
C235   O46     1.395   .     S
C236   H94     1.084   .     S
O43    Zn16    1.801   .     S
O44    Zn16    1.802   .     S
O45    Zn14    1.802   .     S
O46    Zn14    1.800   .     S
C237   C238    1.396   .     A
C237   H95     1.084   .     S
C238   C239    1.372   .     A
C238   O47     1.381   .     S
C239   C240    1.396   .     A
C239   O48     1.381   .     S
C240   H96     1.084   .     S
O47    Cu14    1.812   .     S
O48    Cu14    1.813   .     S
C241   C242    1.427   .     A
C241   C246    1.428   .     A
C241   C251    1.421   .     A
C242   C243    1.427   .     A
C242   C254    1.421   .     A
C243   C244    1.424   .     A
C243   C250    1.421   .     A
C244   C245    1.424   .     A
C244   C247    1.420   .     A
C245   C246    1.424   .     A
C245   C258    1.420   .     A
C246   C255    1.421   .     A
C247   C248    1.396   .     A
C247   H97     1.078   .     S
C248   C249    1.405   .     A
C248   C266    1.406   .     A
C249   C250    1.397   .     A
C249   C263    1.407   .     A
C250   H98     1.077   .     S
C251   C252    1.396   .     A
C251   H99     1.076   .     S
C252   C253    1.407   .     A
C252   C270    1.409   .     A
C253   C254    1.396   .     A
C253   C267    1.409   .     A
C254   H100    1.076   .     S
C255   C256    1.397   .     A
C255   H101    1.077   .     S
C256   C257    1.405   1_565 A
C256   C262    1.407   .     A
C257   C256    1.405   1_545 A
C257   C258    1.396   1_545 A
C257   C259    1.406   .     A
C258   C257    1.396   1_565 A
C258   H102    1.078   1_565 S
C259   C260    1.396   .     A
C259   H103    1.084   .     S
C260   C261    1.410   .     A
C260   O49     1.395   .     S
C261   C262    1.397   1_545 A
C261   O50     1.395   .     S
C262   C261    1.397   1_565 A
C262   H104    1.084   .     S
C263   C264    1.397   .     A
C263   H105    1.084   .     S
C264   C265    1.410   .     A
C264   O51     1.395   .     S
C265   C266    1.396   .     A
C265   O52     1.395   .     S
C266   H106    1.084   .     S
H102   C258    1.078   1_545 S
O49    Zn15    1.800   .     S
O50    Zn15    1.801   .     S
O51    Zn17    1.801   .     S
O52    Zn17    1.800   .     S
C267   C268    1.395   .     A
C267   H107    1.084   .     S
C268   C269    1.372   .     A
C268   O53     1.381   .     S
C269   C270    1.395   .     A
C269   O54     1.381   .     S
C270   H108    1.084   .     S
O53    Cu15    1.812   .     S
O54    Cu15    1.812   .     S
C271   C272    1.424   .     A
C271   C276    1.427   .     A
C271   C281    1.422   .     A
C272   C273    1.426   .     A
C272   C284    1.421   .     A
C273   C274    1.428   .     A
C273   C280    1.422   .     A
C274   C275    1.431   .     A
C274   C277    1.423   .     A
C275   C276    1.428   .     A
C275   C288    1.423   .     A
C276   C285    1.422   .     A
C277   C278    1.397   .     A
C277   H109    1.074   .     S
C278   C279    1.404   .     A
C278   C296    1.407   .     A
C279   C280    1.396   .     A
C279   C293    1.407   .     A
C280   H110    1.077   .     S
C281   C282    1.396   .     A
C281   H111    1.077   .     S
C282   C283    1.408   .     A
C282   C300    1.409   .     A
C283   C284    1.396   .     A
C283   C297    1.409   .     A
C284   H112    1.077   .     S
C285   C286    1.396   .     A
C285   H113    1.077   .     S
C286   C287    1.404   .     A
C286   C292    1.407   .     A
C287   C288    1.397   .     A
C287   C289    1.407   .     A
C288   H114    1.074   .     S
C289   C290    1.396   .     A
C289   H115    1.084   .     S
C290   C291    1.410   .     A
C290   O55     1.395   .     S
C291   C292    1.397   .     A
C291   O56     1.396   .     S
C292   H116    1.084   .     S
C293   C294    1.397   .     A
C293   H117    1.084   .     S
C294   C295    1.410   .     A
C294   O57     1.396   .     S
C295   C296    1.396   .     A
C295   O58     1.395   .     S
C296   H118    1.084   .     S
O55    Zn19    1.801   .     S
O56    Zn19    1.802   .     S
O57    Zn24    1.802   .     S
O58    Zn24    1.800   .     S
C297   C298    1.396   .     A
C297   H119    1.084   .     S
C298   C299    1.372   .     A
C298   O59     1.381   .     S
C299   C300    1.396   .     A
C299   O60     1.381   .     S
C300   H120    1.084   .     S
O59    Cu13    1.812   .     S
O60    Cu13    1.812   .     S
C301   C302    1.428   .     A
C301   C306    1.431   .     A
C301   C311    1.423   .     A
C302   C303    1.427   .     A
C302   C314    1.422   .     A
C303   C304    1.424   .     A
C303   C310    1.422   .     A
C304   C305    1.427   .     A
C304   C307    1.422   .     A
C305   C306    1.428   .     A
C305   C318    1.422   .     A
C306   C315    1.423   .     A
C307   C308    1.396   .     A
C307   H121    1.077   .     S
C308   C309    1.408   .     A
C308   C326    1.409   .     A
C309   C310    1.396   .     A
C309   C323    1.409   .     A
C310   H122    1.077   .     S
C311   C312    1.397   .     A
C311   H123    1.074   .     S
C312   C313    1.404   .     A
C312   C330    1.407   .     A
C313   C314    1.395   .     A
C313   C327    1.407   .     A
C314   H124    1.077   .     S
C315   C316    1.397   1_565 A
C315   H125    1.074   1_565 S
C316   C315    1.397   1_545 A
C316   C317    1.404   1_545 A
C316   C322    1.407   .     A
C317   C316    1.404   1_565 A
C317   C318    1.396   .     A
C317   C319    1.407   .     A
C318   H126    1.077   .     S
C319   C320    1.397   1_565 A
C319   H127    1.084   .     S
C320   C319    1.397   1_545 A
C320   C321    1.410   .     A
C320   O61     1.396   .     S
C321   C322    1.396   .     A
C321   O62     1.395   .     S
C322   H128    1.084   .     S
C323   C324    1.396   .     A
C323   H129    1.084   .     S
C324   C325    1.372   .     A
C324   O63     1.381   .     S
C325   C326    1.396   .     A
C325   O64     1.381   .     S
C326   H130    1.084   .     S
H125   C315    1.074   1_545 S
O61    Zn22    1.802   .     S
O62    Zn22    1.801   .     S
O63    Cu14    1.812   .     S
O64    Cu14    1.812   .     S
C327   C328    1.396   .     A
C327   H131    1.084   .     S
C328   C329    1.410   .     A
C328   O65     1.396   .     S
C329   C330    1.396   .     A
C329   O66     1.395   .     S
C330   H132    1.084   .     S
O65    Zn20    1.802   .     S
O66    Zn20    1.800   .     S
C331   C332    1.424   .     A
C331   C336    1.424   .     A
C331   C341    1.420   .     A
C332   C333    1.427   .     A
C332   C344    1.421   .     A
C333   C334    1.427   .     A
C333   C340    1.421   .     A
C334   C335    1.428   .     A
C334   C337    1.421   .     A
C335   C336    1.424   .     A
C335   C348    1.421   .     A
C336   C345    1.420   .     A
C337   C338    1.396   .     A
C337   H133    1.076   .     S
C338   C339    1.407   .     A
C338   C356    1.409   .     A
C339   C340    1.396   .     A
C339   C353    1.409   .     A
C340   H134    1.076   .     S
C341   C342    1.396   .     A
C341   H135    1.078   .     S
C342   C343    1.405   .     A
C342   C360    1.406   1_455 A
C343   C344    1.397   .     A
C343   C357    1.407   .     A
C344   H136    1.077   .     S
C345   C346    1.396   .     A
C345   H137    1.078   .     S
C346   C347    1.405   .     A
C346   C352    1.406   .     A
C347   C348    1.397   .     A
C347   C349    1.407   .     A
C348   H138    1.077   .     S
C349   C350    1.397   .     A
C349   H139    1.084   .     S
C350   C351    1.410   .     A
C350   O67     1.395   .     S
C351   C352    1.396   .     A
C351   O68     1.395   .     S
C352   H140    1.084   .     S
C353   C354    1.395   .     A
C353   H141    1.084   .     S
C354   C355    1.372   .     A
C354   O69     1.381   .     S
C355   C356    1.395   .     A
C355   O70     1.381   .     S
C356   H142    1.084   .     S
O67    Zn21    1.801   .     S
O68    Zn21    1.800   .     S
O69    Cu15    1.812   .     S
O70    Cu15    1.812   .     S
C357   C358    1.397   1_455 A
C357   H143    1.084   .     S
C358   C357    1.397   1_655 A
C358   C359    1.410   .     A
C358   O71     1.395   .     S
C359   C360    1.396   .     A
C359   O72     1.395   .     S
C360   C342    1.406   1_655 A
C360   H144    1.084   .     S
O71    Zn23    1.801   .     S
O72    Zn23    1.800   .     S
C361   C362    1.428   .     A
C361   C366    1.431   .     A
C361   C371    1.423   .     A
C362   C363    1.427   .     A
C362   C374    1.422   .     A
C363   C364    1.424   .     A
C363   C370    1.421   .     A
C364   C365    1.427   .     A
C364   C367    1.422   .     A
C365   C366    1.428   .     A
C365   C378    1.422   .     A
C366   C375    1.423   .     A
C367   C368    1.396   .     A
C367   H145    1.077   .     S
C368   C369    1.408   .     A
C368   C386    1.409   .     A
C369   C370    1.396   .     A
C369   C383    1.409   .     A
C370   H146    1.077   .     S
C371   C372    1.397   .     A
C371   H147    1.074   .     S
C372   C373    1.404   .     A
C372   C390    1.407   .     A
C373   C374    1.396   .     A
C373   C387    1.407   .     A
C374   H148    1.077   .     S
C375   C376    1.397   .     A
C375   H149    1.074   .     S
C376   C377    1.404   .     A
C376   C382    1.407   .     A
C377   C378    1.396   .     A
C377   C379    1.407   .     A
C378   H150    1.077   .     S
C379   C380    1.397   .     A
C379   H151    1.084   .     S
C380   C381    1.410   .     A
C380   O73     1.396   .     S
C381   C382    1.396   .     A
C381   O74     1.395   .     S
C382   H152    1.084   .     S
C383   C384    1.396   .     A
C383   H153    1.084   .     S
C384   C385    1.372   .     A
C384   O75     1.381   .     S
C385   C386    1.396   .     A
C385   O76     1.381   .     S
C386   H154    1.084   .     S
O73    Zn25    1.802   .     S
O74    Zn25    1.801   .     S
O75    Cu16    1.812   .     S
O76    Cu16    1.813   .     S
C387   C388    1.397   .     A
C387   H155    1.084   .     S
C388   C389    1.410   .     A
C388   O77     1.396   .     S
C389   C390    1.396   .     A
C389   O78     1.395   .     S
C390   H156    1.084   .     S
O77    Zn30    1.802   .     S
O78    Zn30    1.800   .     S
C391   C392    1.424   .     A
C391   C396    1.426   .     A
C391   C401    1.422   .     A
C392   C393    1.427   .     A
C392   C404    1.421   .     A
C393   C394    1.428   .     A
C393   C400    1.422   .     A
C394   C395    1.431   .     A
C394   C397    1.423   .     A
C395   C396    1.428   .     A
C395   C408    1.423   .     A
C396   C405    1.422   .     A
C397   C398    1.397   .     A
C397   H157    1.074   .     S
C398   C399    1.404   .     A
C398   C416    1.407   .     A
C399   C400    1.396   .     A
C399   C413    1.407   .     A
C400   H158    1.077   .     S
C401   C402    1.396   .     A
C401   H159    1.077   .     S
C402   C403    1.408   .     A
C402   C420    1.409   .     A
C403   C404    1.396   .     A
C403   C417    1.409   .     A
C404   H160    1.077   .     S
C405   C406    1.396   .     A
C405   H161    1.077   .     S
C406   C407    1.404   .     A
C406   C412    1.407   .     A
C407   C408    1.397   .     A
C407   C409    1.407   1_545 A
C408   H162    1.074   .     S
C409   C407    1.407   1_565 A
C409   C410    1.396   .     A
C409   H163    1.084   .     S
C410   C411    1.410   .     A
C410   O79     1.395   .     S
C411   C412    1.397   1_565 A
C411   O80     1.396   .     S
C412   C411    1.397   1_545 A
C412   H164    1.084   .     S
C413   C414    1.397   .     A
C413   H165    1.084   .     S
C414   C415    1.410   .     A
C414   O81     1.396   .     S
C415   C416    1.396   .     A
C415   O82     1.395   .     S
C416   H166    1.084   .     S
O79    Zn28    1.801   .     S
O80    Zn28    1.802   .     S
O81    Zn26    1.802   .     S
O82    Zn26    1.800   .     S
C417   C418    1.396   .     A
C417   H167    1.084   .     S
C418   C419    1.372   .     A
C418   O83     1.381   .     S
C419   C420    1.396   .     A
C419   O84     1.381   .     S
C420   H168    1.084   .     S
O83    Cu17    1.812   .     S
O84    Cu17    1.813   .     S
C421   C422    1.427   .     A
C421   C426    1.428   .     A
C421   C431    1.421   .     A
C422   C423    1.428   .     A
C422   C434    1.421   .     A
C423   C424    1.424   .     A
C423   C430    1.421   .     A
C424   C425    1.424   .     A
C424   C427    1.420   .     A
C425   C426    1.424   .     A
C425   C438    1.420   .     A
C426   C435    1.421   .     A
C427   C428    1.396   1_655 A
C427   H169    1.078   1_655 S
C428   C427    1.396   1_455 A
C428   C429    1.405   1_455 A
C428   C446    1.406   .     A
C429   C428    1.405   1_655 A
C429   C430    1.397   .     A
C429   C443    1.407   .     A
C430   H170    1.077   .     S
C431   C432    1.396   .     A
C431   H171    1.076   .     S
C432   C433    1.407   .     A
C432   C450    1.409   .     A
C433   C434    1.396   .     A
C433   C447    1.409   .     A
C434   H172    1.076   .     S
C435   C436    1.398   .     A
C435   H173    1.077   .     S
C436   C437    1.405   .     A
C436   C442    1.407   .     A
C437   C438    1.396   .     A
C437   C439    1.406   .     A
C438   H174    1.078   .     S
C439   C440    1.396   .     A
C439   H175    1.084   .     S
C440   C441    1.410   .     A
C440   O85     1.395   .     S
C441   C442    1.397   .     A
C441   O86     1.395   .     S
C442   H176    1.084   .     S
C443   C444    1.397   1_655 A
C443   H177    1.084   .     S
C444   C443    1.397   1_455 A
C444   C445    1.410   .     A
C444   O87     1.395   .     S
C445   C446    1.396   .     A
C445   O88     1.395   .     S
C446   H178    1.084   .     S
H169   C427    1.078   1_455 S
O85    Zn27    1.800   .     S
O86    Zn27    1.801   .     S
O87    Zn29    1.801   .     S
O88    Zn29    1.800   .     S
C447   C448    1.395   .     A
C447   H179    1.084   .     S
C448   C449    1.372   .     A
C448   O89     1.381   .     S
C449   C450    1.395   .     A
C449   O90     1.381   .     S
C450   H180    1.084   .     S
O89    Cu18    1.812   .     S
O90    Cu18    1.812   .     S
C451   C452    1.424   .     A
C451   C456    1.427   .     A
C451   C461    1.422   .     A
C452   C453    1.426   .     A
C452   C464    1.422   .     A
C453   C454    1.428   .     A
C453   C460    1.422   .     A
C454   C455    1.431   .     A
C454   C457    1.423   .     A
C455   C456    1.428   .     A
C455   C468    1.423   .     A
C456   C465    1.422   .     A
C457   C458    1.397   .     A
C457   H181    1.074   .     S
C458   C459    1.404   .     A
C458   C476    1.407   .     A
C459   C460    1.396   .     A
C459   C473    1.407   .     A
C460   H182    1.077   .     S
C461   C462    1.397   .     A
C461   H183    1.077   .     S
C462   C463    1.408   .     A
C462   C480    1.409   .     A
C463   C464    1.396   .     A
C463   C477    1.409   .     A
C464   H184    1.077   .     S
C465   C466    1.396   .     A
C465   H185    1.076   .     S
C466   C467    1.404   1_655 A
C466   C472    1.407   .     A
C467   C466    1.404   1_455 A
C467   C468    1.397   1_455 A
C467   C469    1.407   .     A
C468   C467    1.397   1_655 A
C468   H186    1.074   1_655 S
C469   C470    1.396   .     A
C469   H187    1.084   .     S
C470   C471    1.410   .     A
C470   O91     1.395   .     S
C471   C472    1.397   1_455 A
C471   O92     1.396   .     S
C472   C471    1.397   1_655 A
C472   H188    1.084   .     S
C473   C474    1.397   .     A
C473   H189    1.084   .     S
C474   C475    1.410   .     A
C474   O93     1.396   .     S
C475   C476    1.396   .     A
C475   O94     1.395   .     S
C476   H190    1.084   .     S
H186   C468    1.074   1_455 S
O91    Zn31    1.801   .     S
O92    Zn31    1.802   .     S
O93    Zn36    1.802   .     S
O94    Zn36    1.800   .     S
C477   C478    1.396   .     A
C477   H191    1.084   .     S
C478   C479    1.372   .     A
C478   O95     1.381   .     S
C479   C480    1.396   .     A
C479   O96     1.381   .     S
C480   H192    1.084   .     S
O95    Cu16    1.812   .     S
O96    Cu16    1.812   .     S
C481   C482    1.428   .     A
C481   C486    1.431   .     A
C481   C491    1.423   .     A
C482   C483    1.427   .     A
C482   C494    1.422   .     A
C483   C484    1.424   .     A
C483   C490    1.422   .     A
C484   C485    1.427   .     A
C484   C487    1.422   .     A
C485   C486    1.428   .     A
C485   C498    1.422   .     A
C486   C495    1.423   .     A
C487   C488    1.396   .     A
C487   H193    1.077   .     S
C488   C489    1.408   .     A
C488   C506    1.409   .     A
C489   C490    1.396   .     A
C489   C503    1.409   .     A
C490   H194    1.077   .     S
C491   C492    1.397   .     A
C491   H195    1.074   .     S
C492   C493    1.404   .     A
C492   C510    1.407   .     A
C493   C494    1.396   .     A
C493   C507    1.407   .     A
C494   H196    1.077   .     S
C495   C496    1.397   .     A
C495   H197    1.074   .     S
C496   C497    1.404   .     A
C496   C502    1.407   .     A
C497   C498    1.396   .     A
C497   C499    1.407   .     A
C498   H198    1.077   .     S
C499   C500    1.397   .     A
C499   H199    1.084   .     S
C500   C501    1.410   .     A
C500   O97     1.396   .     S
C501   C502    1.396   .     A
C501   O98     1.395   .     S
C502   H200    1.084   .     S
C503   C504    1.396   .     A
C503   H201    1.084   .     S
C504   C505    1.372   .     A
C504   O99     1.381   .     S
C505   C506    1.396   .     A
C505   O100    1.381   .     S
C506   H202    1.084   .     S
O97    Zn34    1.802   .     S
O98    Zn34    1.801   .     S
O99    Cu17    1.812   .     S
O100   Cu17    1.812   .     S
C507   C508    1.397   .     A
C507   H203    1.084   .     S
C508   C509    1.410   .     A
C508   O101    1.396   .     S
C509   C510    1.396   .     A
C509   O102    1.395   .     S
C510   H204    1.084   .     S
O101   Zn32    1.802   .     S
O102   Zn32    1.800   .     S
C511   C512    1.424   .     A
C511   C516    1.424   .     A
C511   C521    1.420   .     A
C512   C513    1.427   .     A
C512   C524    1.421   .     A
C513   C514    1.427   .     A
C513   C520    1.421   .     A
C514   C515    1.428   .     A
C514   C517    1.421   .     A
C515   C516    1.424   .     A
C515   C528    1.421   .     A
C516   C525    1.420   .     A
C517   C518    1.396   .     A
C517   H205    1.076   .     S
C518   C519    1.407   .     A
C518   C536    1.409   .     A
C519   C520    1.396   .     A
C519   C533    1.409   .     A
C520   H206    1.076   .     S
C521   C522    1.396   .     A
C521   H207    1.078   .     S
C522   C523    1.405   .     A
C522   C540    1.406   .     A
C523   C524    1.397   .     A
C523   C537    1.407   .     A
C524   H208    1.077   .     S
C525   C526    1.396   .     A
C525   H209    1.078   .     S
C526   C527    1.405   .     A
C526   C532    1.406   1_545 A
C527   C528    1.397   .     A
C527   C529    1.407   .     A
C528   H210    1.077   .     S
C529   C530    1.397   1_545 A
C529   H211    1.084   .     S
C530   C529    1.397   1_565 A
C530   C531    1.410   .     A
C530   O103    1.395   .     S
C531   C532    1.396   .     A
C531   O104    1.395   .     S
C532   C526    1.406   1_565 A
C532   H212    1.084   .     S
C533   C534    1.395   .     A
C533   H213    1.084   .     S
C534   C535    1.372   .     A
C534   O105    1.381   .     S
C535   C536    1.395   .     A
C535   O106    1.381   .     S
C536   H214    1.084   .     S
O103   Zn33    1.801   .     S
O104   Zn33    1.800   .     S
O105   Cu18    1.812   .     S
O106   Cu18    1.812   .     S
C537   C538    1.397   .     A
C537   H215    1.084   .     S
C538   C539    1.410   .     A
C538   O107    1.395   .     S
C539   C540    1.396   .     A
C539   O108    1.395   .     S
C540   H216    1.084   .     S
O107   Zn35    1.801   .     S
O108   Zn35    1.800   .     S
C541   C542    1.426   .     A
C541   C546    1.428   .     A
C541   C551    1.422   .     A
C542   C543    1.426   .     A
C542   C554    1.421   .     A
C543   C544    1.425   .     A
C543   C550    1.421   .     A
C544   C545    1.426   .     A
C544   C547    1.421   .     A
C545   C546    1.426   .     A
C545   C558    1.421   .     A
C546   C555    1.422   .     A
C547   C548    1.396   .     A
C547   H217    1.078   .     S
C548   C549    1.408   .     A
C548   C566    1.409   .     A
C549   C550    1.396   .     A
C549   C563    1.409   .     A
C550   H218    1.077   .     S
C551   C552    1.397   .     A
C551   H219    1.076   .     S
C552   C553    1.405   .     A
C552   C570    1.407   .     A
C553   C554    1.396   .     A
C553   C567    1.407   .     A
C554   H220    1.077   .     S
C555   C556    1.397   .     A
C555   H221    1.076   .     S
C556   C557    1.405   .     A
C556   C562    1.407   .     A
C557   C558    1.396   .     A
C557   C559    1.407   .     A
C558   H222    1.077   .     S
C559   C560    1.396   .     A
C559   H223    1.084   .     S
C560   C561    1.410   .     A
C560   O109    1.395   .     S
C561   C562    1.396   .     A
C561   O110    1.395   .     S
C562   H224    1.084   .     S
C563   C564    1.395   .     A
C563   H225    1.083   .     S
C564   C565    1.372   .     A
C564   O111    1.381   .     S
C565   C566    1.396   .     A
C565   O112    1.381   .     S
C566   H226    1.084   .     S
O109   Zn6     1.801   .     S
O110   Zn6     1.801   .     S
O111   Cu1     1.812   .     S
O112   Cu1     1.812   .     S
C567   C568    1.396   .     A
C567   H227    1.084   .     S
C568   C569    1.410   .     A
C568   O113    1.395   .     S
C569   C570    1.396   .     A
C569   O114    1.395   .     S
C570   H228    1.084   .     S
O113   Zn9     1.800   .     S
O114   Zn9     1.800   .     S
C571   C572    1.428   .     A
C571   C576    1.431   .     A
C571   C581    1.424   .     A
C572   C573    1.428   .     A
C572   C584    1.422   .     A
C573   C574    1.427   .     A
C573   C580    1.424   .     A
C574   C575    1.430   .     A
C574   C577    1.424   .     A
C575   C576    1.429   .     A
C575   C588    1.423   .     A
C576   C585    1.424   .     A
C577   C578    1.396   .     A
C577   H229    1.075   .     S
C578   C579    1.406   .     A
C578   C596    1.410   .     A
C579   C580    1.395   .     A
C579   C593    1.410   .     A
C580   H230    1.076   .     S
C581   C582    1.397   .     A
C581   H231    1.074   .     S
C582   C583    1.403   .     A
C582   C600    1.408   .     A
C583   C584    1.395   .     A
C583   C597    1.407   .     A
C584   H232    1.076   .     S
C585   C586    1.397   .     A
C585   H233    1.074   .     S
C586   C587    1.403   .     A
C586   C592    1.408   .     A
C587   C588    1.395   .     A
C587   C589    1.407   .     A
C588   H234    1.075   .     S
C589   C590    1.396   .     A
C589   H235    1.084   .     S
C590   C591    1.410   .     A
C590   O115    1.395   .     S
C591   C592    1.397   .     A
C591   O116    1.396   .     S
C592   H236    1.084   .     S
C593   C594    1.396   .     A
C593   H237    1.084   .     S
C594   C595    1.372   .     A
C594   O117    1.382   .     S
C595   C596    1.396   .     A
C595   O118    1.381   .     S
C596   H238    1.084   .     S
O115   Zn4     1.800   .     S
O116   Zn4     1.803   .     S
O117   Cu2     1.813   .     S
O118   Cu2     1.812   .     S
C597   C598    1.396   .     A
C597   H239    1.084   .     S
C598   C599    1.410   .     A
C598   O119    1.395   .     S
C599   C600    1.397   .     A
C599   O120    1.396   .     S
C600   H240    1.084   .     S
O119   Zn7     1.801   .     S
O120   Zn7     1.802   .     S
C601   C602    1.426   .     A
C601   C606    1.426   .     A
C601   C611    1.421   .     A
C602   C603    1.428   .     A
C602   C614    1.422   .     A
C603   C604    1.426   .     A
C603   C610    1.422   .     A
C604   C605    1.426   .     A
C604   C607    1.421   .     A
C605   C606    1.425   .     A
C605   C618    1.421   .     A
C606   C615    1.421   .     A
C607   C608    1.396   .     A
C607   H241    1.077   .     S
C608   C609    1.405   .     A
C608   C626    1.407   .     A
C609   C610    1.397   .     A
C609   C623    1.407   .     A
C610   H242    1.076   .     S
C611   C612    1.396   .     A
C611   H243    1.077   .     S
C612   C613    1.405   .     A
C612   C630    1.407   .     A
C613   C614    1.397   .     A
C613   C627    1.407   .     A
C614   H244    1.076   .     S
C615   C616    1.396   .     A
C615   H245    1.077   .     S
C616   C617    1.408   .     A
C616   C622    1.408   .     A
C617   C618    1.396   .     A
C617   C619    1.409   .     A
C618   H246    1.078   .     S
C619   C620    1.396   .     A
C619   H247    1.083   .     S
C620   C621    1.372   .     A
C620   O121    1.381   .     S
C621   C622    1.395   .     A
C621   O122    1.381   .     S
C622   H248    1.084   .     S
C623   C624    1.396   .     A
C623   H249    1.084   .     S
C624   C625    1.410   .     A
C624   O123    1.396   .     S
C625   C626    1.396   .     A
C625   O124    1.395   .     S
C626   H250    1.084   .     S
O121   Cu3     1.812   .     S
O122   Cu3     1.812   .     S
O123   Zn8     1.801   .     S
O124   Zn8     1.801   .     S
C627   C628    1.396   .     A
C627   H251    1.084   .     S
C628   C629    1.410   .     A
C628   O125    1.395   .     S
C629   C630    1.396   .     A
C629   O126    1.395   .     S
C630   H252    1.084   .     S
O125   Zn5     1.800   .     S
O126   Zn5     1.800   .     S
C631   C632    1.426   .     A
C631   C636    1.426   .     A
C631   C641    1.421   .     A
C632   C633    1.428   .     A
C632   C644    1.422   .     A
C633   C634    1.426   .     A
C633   C640    1.422   .     A
C634   C635    1.426   .     A
C634   C637    1.421   .     A
C635   C636    1.425   .     A
C635   C648    1.421   .     A
C636   C645    1.421   .     A
C637   C638    1.396   .     A
C637   H253    1.077   .     S
C638   C639    1.405   .     A
C638   C656    1.407   .     A
C639   C640    1.397   .     A
C639   C653    1.407   .     A
C640   H254    1.076   .     S
C641   C642    1.396   .     A
C641   H255    1.077   .     S
C642   C643    1.405   .     A
C642   C660    1.407   .     A
C643   C644    1.397   .     A
C643   C657    1.407   .     A
C644   H256    1.076   .     S
C645   C646    1.396   .     A
C645   H257    1.078   .     S
C646   C647    1.408   .     A
C646   C652    1.409   .     A
C647   C648    1.396   .     A
C647   C649    1.408   .     A
C648   H258    1.077   .     S
C649   C650    1.395   .     A
C649   H259    1.084   .     S
C650   C651    1.372   .     A
C650   O127    1.381   .     S
C651   C652    1.396   .     A
C651   O128    1.381   .     S
C652   H260    1.083   .     S
C653   C654    1.396   .     A
C653   H261    1.084   .     S
C654   C655    1.410   .     A
C654   O129    1.395   .     S
C655   C656    1.396   .     A
C655   O130    1.395   .     S
C656   H262    1.084   .     S
O127   Cu4     1.812   .     S
O128   Cu4     1.812   .     S
O129   Zn11    1.800   .     S
O130   Zn11    1.800   .     S
C657   C658    1.396   .     A
C657   H263    1.084   .     S
C658   C659    1.410   .     A
C658   O131    1.395   .     S
C659   C660    1.396   .     A
C659   O132    1.395   .     S
C660   H264    1.084   .     S
O131   Zn2     1.801   .     S
O132   Zn2     1.801   .     S
C661   C662    1.426   .     A
C661   C666    1.428   .     A
C661   C671    1.422   .     A
C662   C663    1.426   .     A
C662   C674    1.421   .     A
C663   C664    1.425   .     A
C663   C670    1.421   .     A
C664   C665    1.426   .     A
C664   C667    1.421   .     A
C665   C666    1.426   .     A
C665   C678    1.421   .     A
C666   C675    1.422   .     A
C667   C668    1.396   .     A
C667   H265    1.077   .     S
C668   C669    1.408   .     A
C668   C686    1.409   .     A
C669   C670    1.396   .     A
C669   C683    1.409   .     A
C670   H266    1.078   .     S
C671   C672    1.397   .     A
C671   H267    1.076   .     S
C672   C673    1.405   .     A
C672   C690    1.407   .     A
C673   C674    1.396   .     A
C673   C687    1.407   .     A
C674   H268    1.077   .     S
C675   C676    1.397   .     A
C675   H269    1.076   .     S
C676   C677    1.405   .     A
C676   C682    1.407   .     A
C677   C678    1.396   .     A
C677   C679    1.407   .     A
C678   H270    1.077   .     S
C679   C680    1.396   .     A
C679   H271    1.084   .     S
C680   C681    1.410   .     A
C680   O133    1.395   .     S
C681   C682    1.396   .     A
C681   O134    1.395   .     S
C682   H272    1.084   .     S
C683   C684    1.396   .     A
C683   H273    1.083   .     S
C684   C685    1.372   .     A
C684   O135    1.381   .     S
C685   C686    1.396   .     A
C685   O136    1.381   .     S
C686   H274    1.084   .     S
O133   Zn3     1.801   .     S
O134   Zn3     1.800   .     S
O135   Cu5     1.812   .     S
O136   Cu5     1.812   .     S
C687   C688    1.396   .     A
C687   H275    1.084   .     S
C688   C689    1.410   .     A
C688   O137    1.395   .     S
C689   C690    1.396   .     A
C689   O138    1.395   .     S
C690   H276    1.084   .     S
O137   Zn12    1.801   .     S
O138   Zn12    1.801   .     S
C691   C692    1.428   .     A
C691   C696    1.431   .     A
C691   C701    1.424   .     A
C692   C693    1.429   .     A
C692   C704    1.423   .     A
C693   C694    1.427   .     A
C693   C700    1.424   .     A
C694   C695    1.428   .     A
C694   C697    1.424   .     A
C695   C696    1.428   .     A
C695   C708    1.422   .     A
C696   C705    1.424   .     A
C697   C698    1.396   .     A
C697   H277    1.076   .     S
C698   C699    1.406   .     A
C698   C716    1.410   .     A
C699   C700    1.396   .     A
C699   C713    1.410   .     A
C700   H278    1.075   .     S
C701   C702    1.397   .     A
C701   H279    1.074   .     S
C702   C703    1.403   .     A
C702   C720    1.408   .     A
C703   C704    1.395   .     A
C703   C717    1.407   .     A
C704   H280    1.075   .     S
C705   C706    1.397   .     A
C705   H281    1.074   .     S
C706   C707    1.403   .     A
C706   C712    1.408   .     A
C707   C708    1.395   .     A
C707   C709    1.407   .     A
C708   H282    1.076   .     S
C709   C710    1.396   .     A
C709   H283    1.084   .     S
C710   C711    1.410   .     A
C710   O139    1.395   .     S
C711   C712    1.397   .     A
C711   O140    1.396   .     S
C712   H284    1.084   .     S
C713   C714    1.396   .     A
C713   H285    1.084   .     S
C714   C715    1.372   .     A
C714   O141    1.381   .     S
C715   C716    1.396   .     A
C715   O142    1.381   .     S
C716   H286    1.084   .     S
O139   Zn1     1.801   .     S
O140   Zn1     1.802   .     S
O141   Cu6     1.812   .     S
O142   Cu6     1.813   .     S
C717   C718    1.396   .     A
C717   H287    1.084   .     S
C718   C719    1.410   .     A
C718   O143    1.395   .     S
C719   C720    1.397   .     A
C719   O144    1.396   .     S
C720   H288    1.084   .     S
O143   Zn10    1.800   .     S
O144   Zn10    1.802   .     S
C721   C722    1.426   .     A
C721   C726    1.428   .     A
C721   C731    1.422   .     A
C722   C723    1.426   .     A
C722   C734    1.421   .     A
C723   C724    1.425   .     A
C723   C730    1.421   .     A
C724   C725    1.426   .     A
C724   C727    1.421   .     A
C725   C726    1.426   .     A
C725   C738    1.421   .     A
C726   C735    1.422   .     A
C727   C728    1.396   .     A
C727   H289    1.078   .     S
C728   C729    1.408   .     A
C728   C746    1.409   .     A
C729   C730    1.396   .     A
C729   C743    1.409   .     A
C730   H290    1.077   .     S
C731   C732    1.397   .     A
C731   H291    1.076   .     S
C732   C733    1.405   .     A
C732   C750    1.407   .     A
C733   C734    1.396   .     A
C733   C747    1.407   .     A
C734   H292    1.077   .     S
C735   C736    1.397   .     A
C735   H293    1.076   .     S
C736   C737    1.405   .     A
C736   C742    1.407   .     A
C737   C738    1.396   .     A
C737   C739    1.407   .     A
C738   H294    1.077   .     S
C739   C740    1.396   .     A
C739   H295    1.084   .     S
C740   C741    1.410   .     A
C740   O145    1.395   .     S
C741   C742    1.396   .     A
C741   O146    1.395   .     S
C742   H296    1.084   .     S
C743   C744    1.395   .     A
C743   H297    1.083   .     S
C744   C745    1.372   .     A
C744   O147    1.381   .     S
C745   C746    1.396   .     A
C745   O148    1.381   .     S
C746   H298    1.083   .     S
O145   Zn18    1.801   .     S
O146   Zn18    1.801   .     S
O147   Cu7     1.812   .     S
O148   Cu7     1.812   .     S
C747   C748    1.396   .     A
C747   H299    1.084   .     S
C748   C749    1.410   .     A
C748   O149    1.395   .     S
C749   C750    1.396   .     A
C749   O150    1.395   .     S
C750   H300    1.084   .     S
O149   Zn21    1.800   .     S
O150   Zn21    1.800   .     S
C751   C752    1.427   .     A
C751   C756    1.431   .     A
C751   C761    1.424   .     A
C752   C753    1.428   .     A
C752   C764    1.422   .     A
C753   C754    1.427   .     A
C753   C760    1.423   .     A
C754   C755    1.430   .     A
C754   C757    1.424   .     A
C755   C756    1.429   .     A
C755   C768    1.423   .     A
C756   C765    1.424   .     A
C757   C758    1.395   .     A
C757   H301    1.075   .     S
C758   C759    1.406   .     A
C758   C776    1.409   .     A
C759   C760    1.396   .     A
C759   C773    1.410   .     A
C760   H302    1.076   .     S
C761   C762    1.397   .     A
C761   H303    1.074   .     S
C762   C763    1.404   .     A
C762   C780    1.408   .     A
C763   C764    1.396   .     A
C763   C777    1.407   .     A
C764   H304    1.076   .     S
C765   C766    1.397   .     A
C765   H305    1.074   .     S
C766   C767    1.403   .     A
C766   C772    1.408   .     A
C767   C768    1.395   .     A
C767   C769    1.407   .     A
C768   H306    1.074   .     S
C769   C770    1.396   .     A
C769   H307    1.084   .     S
C770   C771    1.410   .     A
C770   O151    1.395   .     S
C771   C772    1.397   .     A
C771   O152    1.396   .     S
C772   H308    1.084   .     S
C773   C774    1.396   .     A
C773   H309    1.084   .     S
C774   C775    1.372   .     A
C774   O153    1.382   .     S
C775   C776    1.396   .     A
C775   O154    1.381   .     S
C776   H310    1.084   .     S
O151   Zn16    1.800   .     S
O152   Zn16    1.803   .     S
O153   Cu8     1.813   .     S
O154   Cu8     1.812   .     S
C777   C778    1.396   .     A
C777   H311    1.084   .     S
C778   C779    1.410   .     A
C778   O155    1.395   .     S
C779   C780    1.397   .     A
C779   O156    1.396   .     S
C780   H312    1.084   .     S
O155   Zn19    1.801   .     S
O156   Zn19    1.802   .     S
C781   C782    1.426   .     A
C781   C786    1.426   .     A
C781   C791    1.421   .     A
C782   C783    1.428   .     A
C782   C794    1.422   .     A
C783   C784    1.426   .     A
C783   C790    1.422   .     A
C784   C785    1.426   .     A
C784   C787    1.421   .     A
C785   C786    1.425   .     A
C785   C798    1.421   .     A
C786   C795    1.421   .     A
C787   C788    1.396   .     A
C787   H313    1.077   .     S
C788   C789    1.405   .     A
C788   C806    1.407   .     A
C789   C790    1.397   .     A
C789   C803    1.407   .     A
C790   H314    1.076   .     S
C791   C792    1.396   .     A
C791   H315    1.077   .     S
C792   C793    1.405   .     A
C792   C810    1.407   .     A
C793   C794    1.397   .     A
C793   C807    1.407   .     A
C794   H316    1.076   .     S
C795   C796    1.396   .     A
C795   H317    1.077   .     S
C796   C797    1.408   .     A
C796   C802    1.408   .     A
C797   C798    1.396   .     A
C797   C799    1.409   .     A
C798   H318    1.078   .     S
C799   C800    1.396   .     A
C799   H319    1.083   .     S
C800   C801    1.372   .     A
C800   O157    1.381   .     S
C801   C802    1.395   .     A
C801   O158    1.381   .     S
C802   H320    1.083   .     S
C803   C804    1.396   .     A
C803   H321    1.084   .     S
C804   C805    1.410   .     A
C804   O159    1.395   .     S
C805   C806    1.396   .     A
C805   O160    1.395   .     S
C806   H322    1.084   .     S
O157   Cu9     1.812   1_565 S
O158   Cu9     1.812   1_565 S
O159   Zn20    1.801   .     S
O160   Zn20    1.801   .     S
C807   C808    1.396   .     A
C807   H323    1.084   .     S
C808   C809    1.410   .     A
C808   O161    1.395   .     S
C809   C810    1.396   .     A
C809   O162    1.395   .     S
C810   H324    1.084   .     S
O161   Zn17    1.800   .     S
O162   Zn17    1.800   .     S
C811   C812    1.426   .     A
C811   C816    1.426   .     A
C811   C821    1.421   .     A
C812   C813    1.428   .     A
C812   C824    1.422   .     A
C813   C814    1.426   .     A
C813   C820    1.422   .     A
C814   C815    1.426   .     A
C814   C817    1.421   .     A
C815   C816    1.425   .     A
C815   C828    1.421   .     A
C816   C825    1.421   .     A
C817   C818    1.396   .     A
C817   H325    1.077   .     S
C818   C819    1.405   .     A
C818   C836    1.407   .     A
C819   C820    1.397   .     A
C819   C833    1.407   .     A
C820   H326    1.076   .     S
C821   C822    1.396   .     A
C821   H327    1.077   .     S
C822   C823    1.405   .     A
C822   C840    1.407   .     A
C823   C824    1.397   .     A
C823   C837    1.407   .     A
C824   H328    1.076   .     S
C825   C826    1.396   .     A
C825   H329    1.078   .     S
C826   C827    1.408   .     A
C826   C832    1.409   .     A
C827   C828    1.396   .     A
C827   C829    1.408   .     A
C828   H330    1.077   .     S
C829   C830    1.395   .     A
C829   H331    1.083   .     S
C830   C831    1.372   .     A
C830   O163    1.381   .     S
C831   C832    1.396   .     A
C831   O164    1.381   .     S
C832   H332    1.083   .     S
C833   C834    1.396   .     A
C833   H333    1.084   .     S
C834   C835    1.410   .     A
C834   O165    1.395   .     S
C835   C836    1.396   .     A
C835   O166    1.395   .     S
C836   H334    1.084   .     S
O163   Cu3     1.812   .     S
O164   Cu3     1.812   .     S
O165   Zn23    1.800   .     S
O166   Zn23    1.800   .     S
C837   C838    1.396   .     A
C837   H335    1.084   .     S
C838   C839    1.410   .     A
C838   O167    1.395   .     S
C839   C840    1.396   .     A
C839   O168    1.395   .     S
C840   H336    1.084   .     S
O167   Zn14    1.801   .     S
O168   Zn14    1.801   .     S
C841   C842    1.426   .     A
C841   C846    1.428   .     A
C841   C851    1.422   .     A
C842   C843    1.426   .     A
C842   C854    1.421   .     A
C843   C844    1.425   .     A
C843   C850    1.421   .     A
C844   C845    1.426   .     A
C844   C847    1.421   .     A
C845   C846    1.426   .     A
C845   C858    1.421   .     A
C846   C855    1.422   .     A
C847   C848    1.396   .     A
C847   H337    1.077   .     S
C848   C849    1.408   .     A
C848   C866    1.409   .     A
C849   C850    1.396   .     A
C849   C863    1.409   .     A
C850   H338    1.078   .     S
C851   C852    1.397   .     A
C851   H339    1.076   .     S
C852   C853    1.405   .     A
C852   C870    1.407   .     A
C853   C854    1.396   .     A
C853   C867    1.407   .     A
C854   H340    1.077   .     S
C855   C856    1.397   .     A
C855   H341    1.076   .     S
C856   C857    1.405   .     A
C856   C862    1.407   .     A
C857   C858    1.396   .     A
C857   C859    1.407   .     A
C858   H342    1.077   .     S
C859   C860    1.396   .     A
C859   H343    1.084   .     S
C860   C861    1.410   .     A
C860   O169    1.395   .     S
C861   C862    1.396   .     A
C861   O170    1.395   .     S
C862   H344    1.084   .     S
C863   C864    1.396   .     A
C863   H345    1.084   .     S
C864   C865    1.372   .     A
C864   O171    1.381   .     S
C865   C866    1.395   .     A
C865   O172    1.381   .     S
C866   H346    1.084   .     S
O169   Zn15    1.800   .     S
O170   Zn15    1.801   .     S
O171   Cu1     1.812   .     S
O172   Cu1     1.812   .     S
C867   C868    1.396   .     A
C867   H347    1.084   .     S
C868   C869    1.410   .     A
C868   O173    1.395   .     S
C869   C870    1.396   .     A
C869   O174    1.395   .     S
C870   H348    1.084   .     S
O173   Zn24    1.801   .     S
O174   Zn24    1.801   .     S
C871   C872    1.428   .     A
C871   C876    1.431   .     A
C871   C881    1.424   .     A
C872   C873    1.429   .     A
C872   C884    1.422   .     A
C873   C874    1.427   .     A
C873   C880    1.424   .     A
C874   C875    1.429   .     A
C874   C877    1.424   .     A
C875   C876    1.428   .     A
C875   C888    1.422   .     A
C876   C885    1.424   .     A
C877   C878    1.396   .     A
C877   H349    1.076   .     S
C878   C879    1.406   .     A
C878   C896    1.410   .     A
C879   C880    1.396   .     A
C879   C893    1.410   .     A
C880   H350    1.075   .     S
C881   C882    1.397   .     A
C881   H351    1.074   .     S
C882   C883    1.403   .     A
C882   C900    1.408   .     A
C883   C884    1.395   .     A
C883   C897    1.407   .     A
C884   H352    1.075   .     S
C885   C886    1.397   .     A
C885   H353    1.074   .     S
C886   C887    1.403   .     A
C886   C892    1.408   .     A
C887   C888    1.395   .     A
C887   C889    1.407   .     A
C888   H354    1.075   .     S
C889   C890    1.396   .     A
C889   H355    1.084   .     S
C890   C891    1.410   .     A
C890   O175    1.395   .     S
C891   C892    1.397   .     A
C891   O176    1.396   .     S
C892   H356    1.084   .     S
C893   C894    1.396   .     A
C893   H357    1.084   .     S
C894   C895    1.372   .     A
C894   O177    1.381   .     S
C895   C896    1.396   .     A
C895   O178    1.381   .     S
C896   H358    1.084   .     S
O175   Zn13    1.801   .     S
O176   Zn13    1.802   .     S
O177   Cu2     1.813   .     S
O178   Cu2     1.813   .     S
C897   C898    1.396   .     A
C897   H359    1.084   .     S
C898   C899    1.410   .     A
C898   O179    1.395   .     S
C899   C900    1.397   .     A
C899   O180    1.396   .     S
C900   H360    1.084   .     S
O179   Zn22    1.801   .     S
O180   Zn22    1.802   .     S
C901   C902    1.426   .     A
C901   C906    1.428   .     A
C901   C911    1.422   .     A
C902   C903    1.426   .     A
C902   C914    1.421   .     A
C903   C904    1.425   .     A
C903   C910    1.421   .     A
C904   C905    1.426   .     A
C904   C907    1.421   .     A
C905   C906    1.426   .     A
C905   C918    1.421   .     A
C906   C915    1.422   .     A
C907   C908    1.396   .     A
C907   H361    1.078   .     S
C908   C909    1.408   .     A
C908   C926    1.409   .     A
C909   C910    1.396   .     A
C909   C923    1.409   .     A
C910   H362    1.077   .     S
C911   C912    1.397   .     A
C911   H363    1.076   .     S
C912   C913    1.405   .     A
C912   C930    1.407   .     A
C913   C914    1.396   .     A
C913   C927    1.407   .     A
C914   H364    1.077   .     S
C915   C916    1.397   .     A
C915   H365    1.076   .     S
C916   C917    1.405   .     A
C916   C922    1.407   .     A
C917   C918    1.396   .     A
C917   C919    1.407   .     A
C918   H366    1.077   .     S
C919   C920    1.396   .     A
C919   H367    1.084   .     S
C920   C921    1.410   .     A
C920   O181    1.395   .     S
C921   C922    1.396   .     A
C921   O182    1.395   .     S
C922   H368    1.084   .     S
C923   C924    1.395   .     A
C923   H369    1.083   .     S
C924   C925    1.372   .     A
C924   O183    1.381   .     S
C925   C926    1.396   .     A
C925   O184    1.381   .     S
C926   H370    1.083   .     S
O181   Zn30    1.801   .     S
O182   Zn30    1.801   .     S
O183   Cu5     1.812   .     S
O184   Cu5     1.812   .     S
C927   C928    1.396   .     A
C927   H371    1.084   .     S
C928   C929    1.410   .     A
C928   O185    1.395   .     S
C929   C930    1.396   .     A
C929   O186    1.395   .     S
C930   H372    1.084   .     S
O185   Zn33    1.801   .     S
O186   Zn33    1.801   .     S
C931   C932    1.427   .     A
C931   C936    1.431   .     A
C931   C941    1.424   .     A
C932   C933    1.428   .     A
C932   C944    1.422   .     A
C933   C934    1.427   .     A
C933   C940    1.423   .     A
C934   C935    1.430   .     A
C934   C937    1.424   .     A
C935   C936    1.429   .     A
C935   C948    1.423   .     A
C936   C945    1.424   .     A
C937   C938    1.396   .     A
C937   H373    1.075   .     S
C938   C939    1.406   .     A
C938   C956    1.409   .     A
C939   C940    1.396   .     A
C939   C953    1.410   .     A
C940   H374    1.076   .     S
C941   C942    1.397   .     A
C941   H375    1.074   .     S
C942   C943    1.403   .     A
C942   C960    1.408   .     A
C943   C944    1.396   .     A
C943   C957    1.407   .     A
C944   H376    1.076   .     S
C945   C946    1.397   .     A
C945   H377    1.074   .     S
C946   C947    1.403   .     A
C946   C952    1.408   .     A
C947   C948    1.395   .     A
C947   C949    1.407   .     A
C948   H378    1.075   .     S
C949   C950    1.396   .     A
C949   H379    1.084   .     S
C950   C951    1.410   .     A
C950   O187    1.395   .     S
C951   C952    1.397   .     A
C951   O188    1.396   .     S
C952   H380    1.084   .     S
C953   C954    1.396   .     A
C953   H381    1.084   .     S
C954   C955    1.372   .     A
C954   O189    1.382   .     S
C955   C956    1.396   .     A
C955   O190    1.381   .     S
C956   H382    1.084   .     S
O187   Zn28    1.800   .     S
O188   Zn28    1.803   .     S
O189   Cu6     1.813   .     S
O190   Cu6     1.812   .     S
C957   C958    1.396   .     A
C957   H383    1.084   .     S
C958   C959    1.410   .     A
C958   O191    1.395   .     S
C959   C960    1.397   .     A
C959   O192    1.396   .     S
C960   H384    1.084   .     S
O191   Zn31    1.801   .     S
O192   Zn31    1.802   .     S
C961   C962    1.426   .     A
C961   C966    1.426   .     A
C961   C971    1.421   .     A
C962   C963    1.428   .     A
C962   C974    1.422   .     A
C963   C964    1.426   .     A
C963   C970    1.422   .     A
C964   C965    1.426   .     A
C964   C967    1.421   .     A
C965   C966    1.425   .     A
C965   C978    1.421   .     A
C966   C975    1.421   .     A
C967   C968    1.396   .     A
C967   H385    1.077   .     S
C968   C969    1.405   .     A
C968   C986    1.407   .     A
C969   C970    1.397   .     A
C969   C983    1.407   .     A
C970   H386    1.076   .     S
C971   C972    1.396   .     A
C971   H387    1.077   .     S
C972   C973    1.405   .     A
C972   C990    1.407   .     A
C973   C974    1.397   .     A
C973   C987    1.407   .     A
C974   H388    1.076   .     S
C975   C976    1.396   .     A
C975   H389    1.077   .     S
C976   C977    1.408   .     A
C976   C982    1.408   .     A
C977   C978    1.396   .     A
C977   C979    1.409   .     A
C978   H390    1.078   .     S
C979   C980    1.396   .     A
C979   H391    1.083   .     S
C980   C981    1.372   .     A
C980   O193    1.381   .     S
C981   C982    1.395   .     A
C981   O194    1.381   .     S
C982   H392    1.083   .     S
C983   C984    1.396   .     A
C983   H393    1.084   .     S
C984   C985    1.410   .     A
C984   O195    1.395   .     S
C985   C986    1.396   .     A
C985   O196    1.395   .     S
C986   H394    1.084   .     S
O193   Cu4     1.812   .     S
O194   Cu4     1.812   .     S
O195   Zn32    1.801   .     S
O196   Zn32    1.801   .     S
C987   C988    1.396   .     A
C987   H395    1.084   .     S
C988   C989    1.410   .     A
C988   O197    1.395   .     S
C989   C990    1.396   .     A
C989   O198    1.395   .     S
C990   H396    1.084   .     S
O197   Zn29    1.800   .     S
O198   Zn29    1.800   .     S
C991   C992    1.426   .     A
C991   C996    1.426   .     A
C991   C1001   1.421   .     A
C992   C993    1.428   .     A
C992   C1004   1.422   .     A
C993   C994    1.426   .     A
C993   C1000   1.422   .     A
C994   C995    1.426   .     A
C994   C997    1.421   .     A
C995   C996    1.425   .     A
C995   C1008   1.421   .     A
C996   C1005   1.421   .     A
C997   C998    1.396   .     A
C997   H397    1.077   .     S
C998   C999    1.405   .     A
C998   C1016   1.407   .     A
C999   C1000   1.397   .     A
C999   C1013   1.407   .     A
C1000  H398    1.076   .     S
C1001  C1002   1.396   .     A
C1001  H399    1.077   .     S
C1002  C1003   1.405   .     A
C1002  C1020   1.407   .     A
C1003  C1004   1.397   .     A
C1003  C1017   1.407   .     A
C1004  H400    1.076   .     S
C1005  C1006   1.396   .     A
C1005  H401    1.078   .     S
C1006  C1007   1.408   .     A
C1006  C1012   1.409   .     A
C1007  C1008   1.396   .     A
C1007  C1009   1.408   .     A
C1008  H402    1.077   .     S
C1009  C1010   1.395   .     A
C1009  H403    1.083   .     S
C1010  C1011   1.372   .     A
C1010  O199    1.381   .     S
C1011  C1012   1.396   .     A
C1011  O200    1.381   .     S
C1012  H404    1.084   .     S
C1013  C1014   1.396   .     A
C1013  H405    1.084   .     S
C1014  C1015   1.410   .     A
C1014  O201    1.395   .     S
C1015  C1016   1.396   .     A
C1015  O202    1.395   .     S
C1016  H406    1.084   .     S
O199   Cu9     1.812   .     S
O200   Cu9     1.812   .     S
O201   Zn35    1.800   .     S
O202   Zn35    1.800   .     S
C1017  C1018   1.396   .     A
C1017  H407    1.084   .     S
C1018  C1019   1.410   .     A
C1018  O203    1.395   .     S
C1019  C1020   1.396   .     A
C1019  O204    1.395   .     S
C1020  H408    1.084   .     S
O203   Zn26    1.801   .     S
O204   Zn26    1.801   .     S
C1021  C1022   1.426   .     A
C1021  C1026   1.428   .     A
C1021  C1031   1.422   .     A
C1022  C1023   1.426   .     A
C1022  C1034   1.421   .     A
C1023  C1024   1.425   .     A
C1023  C1030   1.421   .     A
C1024  C1025   1.426   .     A
C1024  C1027   1.421   .     A
C1025  C1026   1.426   .     A
C1025  C1038   1.421   .     A
C1026  C1035   1.422   .     A
C1027  C1028   1.396   .     A
C1027  H409    1.077   .     S
C1028  C1029   1.408   .     A
C1028  C1046   1.409   .     A
C1029  C1030   1.396   .     A
C1029  C1043   1.409   .     A
C1030  H410    1.078   .     S
C1031  C1032   1.397   .     A
C1031  H411    1.076   .     S
C1032  C1033   1.405   .     A
C1032  C1050   1.407   .     A
C1033  C1034   1.396   .     A
C1033  C1047   1.407   .     A
C1034  H412    1.077   .     S
C1035  C1036   1.397   .     A
C1035  H413    1.076   .     S
C1036  C1037   1.405   .     A
C1036  C1042   1.407   .     A
C1037  C1038   1.396   .     A
C1037  C1039   1.407   .     A
C1038  H414    1.077   .     S
C1039  C1040   1.396   .     A
C1039  H415    1.084   .     S
C1040  C1041   1.410   .     A
C1040  O205    1.395   .     S
C1041  C1042   1.396   .     A
C1041  O206    1.395   .     S
C1042  H416    1.084   .     S
C1043  C1044   1.396   .     A
C1043  H417    1.084   .     S
C1044  C1045   1.372   .     A
C1044  O207    1.381   .     S
C1045  C1046   1.395   .     A
C1045  O208    1.381   .     S
C1046  H418    1.084   .     S
O205   Zn27    1.800   .     S
O206   Zn27    1.801   .     S
O207   Cu7     1.812   1_655 S
O208   Cu7     1.812   1_655 S
C1047  C1048   1.396   .     A
C1047  H419    1.084   .     S
C1048  C1049   1.410   .     A
C1048  O209    1.395   .     S
C1049  C1050   1.396   .     A
C1049  O210    1.395   .     S
C1050  H420    1.084   .     S
O209   Zn36    1.801   .     S
O210   Zn36    1.801   .     S
C1051  C1052   1.429   .     A
C1051  C1056   1.431   .     A
C1051  C1061   1.424   .     A
C1052  C1053   1.430   .     A
C1052  C1064   1.423   .     A
C1053  C1054   1.427   .     A
C1053  C1060   1.424   .     A
C1054  C1055   1.428   .     A
C1054  C1057   1.423   .     A
C1055  C1056   1.427   .     A
C1055  C1068   1.422   .     A
C1056  C1065   1.424   .     A
C1057  C1058   1.396   .     A
C1057  H421    1.076   .     S
C1058  C1059   1.406   .     A
C1058  C1076   1.410   .     A
C1059  C1060   1.395   .     A
C1059  C1073   1.410   .     A
C1060  H422    1.075   .     S
C1061  C1062   1.397   .     A
C1061  H423    1.074   .     S
C1062  C1063   1.403   .     A
C1062  C1080   1.408   .     A
C1063  C1064   1.395   .     A
C1063  C1077   1.407   .     A
C1064  H424    1.075   .     S
C1065  C1066   1.397   .     A
C1065  H425    1.074   .     S
C1066  C1067   1.403   .     A
C1066  C1072   1.408   .     A
C1067  C1068   1.395   .     A
C1067  C1069   1.407   .     A
C1068  H426    1.076   .     S
C1069  C1070   1.396   .     A
C1069  H427    1.084   .     S
C1070  C1071   1.410   .     A
C1070  O211    1.395   .     S
C1071  C1072   1.397   .     A
C1071  O212    1.396   .     S
C1072  H428    1.084   .     S
C1073  C1074   1.396   .     A
C1073  H429    1.084   .     S
C1074  C1075   1.372   .     A
C1074  O213    1.381   .     S
C1075  C1076   1.396   .     A
C1075  O214    1.381   .     S
C1076  H430    1.084   .     S
O211   Zn25    1.801   .     S
O212   Zn25    1.802   .     S
O213   Cu8     1.812   .     S
O214   Cu8     1.813   .     S
C1077  C1078   1.396   .     A
C1077  H431    1.084   .     S
C1078  C1079   1.410   .     A
C1078  O215    1.395   .     S
C1079  C1080   1.397   .     A
C1079  O216    1.396   .     S
C1080  H432    1.084   .     S
O215   Zn34    1.800   .     S
O216   Zn34    1.803   .     S
Cu7    O207    1.812   1_455 S
Cu7    O208    1.812   1_455 S
Cu9    O157    1.812   1_545 S
Cu9    O158    1.812   1_545 S
Cu10   O4      1.812   1_544 S
Cu10   O23     1.812   1_544 S
Cu11   O27     1.812   1_455 S
Cu11   O12     1.813   1_455 S
Cu11   O28     1.813   1_554 S
Cu11   O11     1.812   1_554 S
Cu12   O18     1.812   1_554 S
Cu12   O33     1.812   1_554 S
