data_pbz-D_O-Feoct
_audit_creation_date              2021-11-06
_audit_creation_method            'Materials Studio'
_symmetry_space_group_name_H-M    'P1'
_symmetry_Int_Tables_number       1
_symmetry_cell_setting            triclinic
loop_
_symmetry_equiv_pos_as_xyz
  x,y,z
_cell_length_a                    32.3030
_cell_length_b                    32.3030
_cell_length_c                    32.3030
_cell_angle_alpha                 90.0001
_cell_angle_beta                  90.0000
_cell_angle_gamma                 89.9998
loop_
_atom_site_label
_atom_site_type_symbol
_atom_site_fract_x
_atom_site_fract_y
_atom_site_fract_z
_atom_site_U_iso_or_equiv
_atom_site_adp_type
_atom_site_occupancy
Fe1    Fe    0.00003   0.16670   0.66667   0.00000  Uiso   1.00
Fe2    Fe    0.83336   0.50001   0.16669   0.00000  Uiso   1.00
Fe3    Fe    0.50000   0.33334   0.66667   0.00000  Uiso   1.00
Fe4    Fe    0.66667   0.00003   0.16669   0.00000  Uiso   1.00
Fe5    Fe    0.00003   0.33335   0.83336   0.00000  Uiso   1.00
Fe6    Fe    0.66667   0.50001   0.33333   0.00000  Uiso   1.00
Fe7    Fe    0.50000   0.16670   0.83336   0.00000  Uiso   1.00
Fe8    Fe    0.83336   0.00003   0.33333   0.00000  Uiso   1.00
Fe9    Fe    0.16670   0.66667   0.00004   0.00000  Uiso   1.00
Fe10   Fe    0.16669   0.83337   0.50001   0.00000  Uiso   1.00
Fe11   Fe    0.33334   0.66668   0.50001   0.00000  Uiso   1.00
Fe12   Fe    0.33334   0.83336   0.00003   0.00000  Uiso   1.00
Fe13   Fe    0.00002   0.83336   0.33334   0.00000  Uiso   1.00
Fe14   Fe    0.16670   0.50001   0.83337   0.00000  Uiso   1.00
Fe15   Fe    0.50000   0.66668   0.33334   0.00000  Uiso   1.00
Fe16   Fe    0.33334   0.00003   0.83336   0.00000  Uiso   1.00
Fe17   Fe    0.00003   0.66667   0.16670   0.00000  Uiso   1.00
Fe18   Fe    0.33334   0.50001   0.66667   0.00000  Uiso   1.00
Fe19   Fe    0.50000   0.83337   0.16670   0.00000  Uiso   1.00
Fe20   Fe    0.16669   0.00003   0.66667   0.00000  Uiso   1.00
Fe21   Fe    0.83336   0.33335   0.00002   0.00000  Uiso   1.00
Fe22   Fe    0.83336   0.16670   0.50000   0.00000  Uiso   1.00
Fe23   Fe    0.66667   0.33334   0.50000   0.00000  Uiso   1.00
Fe24   Fe    0.66667   0.16670   0.00002   0.00000  Uiso   1.00
C1     C     0.00003   0.21925   0.78077   0.00000  Uiso   1.00
C2     C     0.00002   0.20832   0.73886   0.00000  Uiso   1.00
C3     C     0.00004   0.23888   0.70830   0.00000  Uiso   1.00
C4     C     0.00003   0.28079   0.71925   0.00000  Uiso   1.00
C5     C     0.00002   0.29173   0.76116   0.00000  Uiso   1.00
C6     C     0.00004   0.26117   0.79172   0.00000  Uiso   1.00
H1     H     0.00003   0.19555   0.80447   0.00000  Uiso   1.00
O1     O    -0.00001   0.16719   0.72649   0.00000  Uiso   1.00
O2     O     0.00007   0.22652   0.66717   0.00000  Uiso   1.00
H2     H     0.00003   0.30449   0.69556   0.00000  Uiso   1.00
O3     O    -0.00001   0.33286   0.77354   0.00000  Uiso   1.00
O4     O     0.00007   0.27353   0.83286   0.00000  Uiso   1.00
C7     C     0.71925   0.50001   0.21924   0.00000  Uiso   1.00
C8     C     0.76117   0.50002   0.20831   0.00000  Uiso   1.00
C9     C     0.79172   0.50000   0.23887   0.00000  Uiso   1.00
C10    C     0.78078   0.50001   0.28079   0.00000  Uiso   1.00
C11    C     0.73886   0.50002   0.29172   0.00000  Uiso   1.00
C12    C     0.70831   0.50000   0.26115   0.00000  Uiso   1.00
H3     H     0.69556   0.50001   0.19554   0.00000  Uiso   1.00
O5     O     0.77354   0.50005   0.16718   0.00000  Uiso   1.00
O6     O     0.83286   0.49996   0.22651   0.00000  Uiso   1.00
H4     H     0.80447   0.50001   0.30449   0.00000  Uiso   1.00
O7     O     0.72649   0.50005   0.33285   0.00000  Uiso   1.00
O8     O     0.66717   0.49997   0.27352   0.00000  Uiso   1.00
C13    C     0.50000   0.21925   0.71925   0.00000  Uiso   1.00
C14    C     0.50001   0.20831   0.76116   0.00000  Uiso   1.00
C15    C     0.49999   0.23888   0.79172   0.00000  Uiso   1.00
C16    C     0.50000   0.28079   0.78077   0.00000  Uiso   1.00
C17    C     0.50001   0.29172   0.73886   0.00000  Uiso   1.00
C18    C     0.49999   0.26116   0.70830   0.00000  Uiso   1.00
H5     H     0.50000   0.19555   0.69556   0.00000  Uiso   1.00
O9     O     0.50004   0.16718   0.77354   0.00000  Uiso   1.00
O10    O     0.49996   0.22651   0.83286   0.00000  Uiso   1.00
H6     H     0.50000   0.30449   0.80447   0.00000  Uiso   1.00
O11    O     0.50004   0.33285   0.72648   0.00000  Uiso   1.00
O12    O     0.49996   0.27352   0.66717   0.00000  Uiso   1.00
C19    C     0.71925   0.00003   0.28078   0.00000  Uiso   1.00
C20    C     0.70831   0.00004   0.23887   0.00000  Uiso   1.00
C21    C     0.73886   0.00002   0.20831   0.00000  Uiso   1.00
C22    C     0.78078   0.00003   0.21924   0.00000  Uiso   1.00
C23    C     0.79172   0.00004   0.26115   0.00000  Uiso   1.00
C24    C     0.76117   0.00002   0.29172   0.00000  Uiso   1.00
H7     H     0.69556   0.00003   0.30448   0.00000  Uiso   1.00
O13    O     0.66717   0.00008   0.22651   0.00000  Uiso   1.00
O14    O     0.72649  -0.00001   0.16717   0.00000  Uiso   1.00
H8     H     0.80447   0.00003   0.19554   0.00000  Uiso   1.00
O15    O     0.83286   0.00007   0.27352   0.00000  Uiso   1.00
O16    O     0.77354  -0.00001   0.33285   0.00000  Uiso   1.00
C25    C     0.28079   0.71925   0.00003   0.00000  Uiso   1.00
C26    C     0.29172   0.76117   0.00002   0.00000  Uiso   1.00
C27    C     0.26116   0.79172   0.00004   0.00000  Uiso   1.00
C28    C     0.21925   0.78078   0.00003   0.00000  Uiso   1.00
C29    C     0.20831   0.73886   0.00003   0.00000  Uiso   1.00
C30    C     0.23888   0.70831   0.00004   0.00000  Uiso   1.00
H9     H     0.30449   0.69556   0.00003   0.00000  Uiso   1.00
O17    O     0.33285   0.77354  -0.00001   0.00000  Uiso   1.00
O18    O     0.27352   0.83286   0.00007   0.00000  Uiso   1.00
H10    H     0.19555   0.80447   0.00003   0.00000  Uiso   1.00
O19    O     0.16718   0.72649  -0.00000   0.00000  Uiso   1.00
O20    O     0.22651   0.66717   0.00008   0.00000  Uiso   1.00
C31    C     0.21924   0.71926   0.50001   0.00000  Uiso   1.00
C32    C     0.20831   0.76117   0.50001   0.00000  Uiso   1.00
C33    C     0.23887   0.79173   0.50000   0.00000  Uiso   1.00
C34    C     0.28079   0.78078   0.50001   0.00000  Uiso   1.00
C35    C     0.29172   0.73887   0.50002   0.00000  Uiso   1.00
C36    C     0.26116   0.70832   0.50000   0.00000  Uiso   1.00
H11    H     0.19554   0.69557   0.50001   0.00000  Uiso   1.00
O21    O     0.16718   0.77355   0.50005   0.00000  Uiso   1.00
O22    O     0.22651   0.83287   0.49996   0.00000  Uiso   1.00
H12    H     0.30448   0.80448   0.50001   0.00000  Uiso   1.00
O23    O     0.33285   0.72650   0.50005   0.00000  Uiso   1.00
O24    O     0.27352   0.66718   0.49997   0.00000  Uiso   1.00
C37    C     0.00002   0.78078   0.21925   0.00000  Uiso   1.00
C38    C     0.00002   0.73886   0.20832   0.00000  Uiso   1.00
C39    C     0.00003   0.70831   0.23888   0.00000  Uiso   1.00
C40    C     0.00002   0.71926   0.28079   0.00000  Uiso   1.00
C41    C     0.00001   0.76117   0.29173   0.00000  Uiso   1.00
C42    C     0.00003   0.79173   0.26116   0.00000  Uiso   1.00
H13    H     0.00002   0.80447   0.19555   0.00000  Uiso   1.00
O25    O    -0.00001   0.72649   0.16718   0.00000  Uiso   1.00
O26    O     0.00007   0.66717   0.22652   0.00000  Uiso   1.00
H14    H     0.00002   0.69556   0.30449   0.00000  Uiso   1.00
O27    O    -0.00002   0.77355   0.33286   0.00000  Uiso   1.00
O28    O     0.00006   0.83286   0.27352   0.00000  Uiso   1.00
C43    C     0.28079   0.50001   0.78078   0.00000  Uiso   1.00
C44    C     0.23888   0.50000   0.79173   0.00000  Uiso   1.00
C45    C     0.20832   0.50002   0.76117   0.00000  Uiso   1.00
C46    C     0.21925   0.50001   0.71926   0.00000  Uiso   1.00
C47    C     0.26116   0.50000   0.70831   0.00000  Uiso   1.00
C48    C     0.29172   0.50002   0.73886   0.00000  Uiso   1.00
H15    H     0.30449   0.50001   0.80447   0.00000  Uiso   1.00
O29    O     0.22652   0.49997   0.83286   0.00000  Uiso   1.00
O30    O     0.16718   0.50005   0.77355   0.00000  Uiso   1.00
H16    H     0.19555   0.50001   0.69557   0.00000  Uiso   1.00
O31    O     0.27352   0.49997   0.66717   0.00000  Uiso   1.00
O32    O     0.33286   0.50005   0.72649   0.00000  Uiso   1.00
C49    C     0.50000   0.71926   0.21925   0.00000  Uiso   1.00
C50    C     0.49999   0.70832   0.26116   0.00000  Uiso   1.00
C51    C     0.50001   0.73887   0.29172   0.00000  Uiso   1.00
C52    C     0.50000   0.78079   0.28079   0.00000  Uiso   1.00
C53    C     0.50000   0.79173   0.23888   0.00000  Uiso   1.00
C54    C     0.50001   0.76118   0.20831   0.00000  Uiso   1.00
H17    H     0.50000   0.69557   0.19555   0.00000  Uiso   1.00
O33    O     0.49996   0.66718   0.27352   0.00000  Uiso   1.00
O34    O     0.50004   0.72650   0.33286   0.00000  Uiso   1.00
H18    H     0.50000   0.80448   0.30449   0.00000  Uiso   1.00
O35    O     0.49996   0.83287   0.22651   0.00000  Uiso   1.00
O36    O     0.50004   0.77355   0.16718   0.00000  Uiso   1.00
C55    C     0.28079   0.00003   0.71925   0.00000  Uiso   1.00
C56    C     0.23887   0.00004   0.70831   0.00000  Uiso   1.00
C57    C     0.20831   0.00002   0.73886   0.00000  Uiso   1.00
C58    C     0.21925   0.00003   0.78078   0.00000  Uiso   1.00
C59    C     0.26116   0.00003   0.79172   0.00000  Uiso   1.00
C60    C     0.29172   0.00002   0.76117   0.00000  Uiso   1.00
H19    H     0.30449   0.00003   0.69556   0.00000  Uiso   1.00
O37    O     0.22651   0.00007   0.66717   0.00000  Uiso   1.00
O38    O     0.16718  -0.00001   0.72649   0.00000  Uiso   1.00
H20    H     0.19555   0.00003   0.80447   0.00000  Uiso   1.00
O39    O     0.27352   0.00006   0.83286   0.00000  Uiso   1.00
O40    O     0.33285  -0.00002   0.77354   0.00000  Uiso   1.00
C61    C     0.78078   0.21925   0.00002   0.00000  Uiso   1.00
C62    C     0.79172   0.26116   0.00003   0.00000  Uiso   1.00
C63    C     0.76117   0.29173   0.00001   0.00000  Uiso   1.00
C64    C     0.71925   0.28079   0.00002   0.00000  Uiso   1.00
C65    C     0.70831   0.23888   0.00003   0.00000  Uiso   1.00
C66    C     0.73886   0.20832   0.00001   0.00000  Uiso   1.00
H21    H     0.80447   0.19555   0.00002   0.00000  Uiso   1.00
O41    O     0.83286   0.27353   0.00006   0.00000  Uiso   1.00
O42    O     0.77354   0.33286  -0.00002   0.00000  Uiso   1.00
H22    H     0.69556   0.30449   0.00002   0.00000  Uiso   1.00
O43    O     0.66717   0.22652   0.00006   0.00000  Uiso   1.00
O44    O     0.72649   0.16718  -0.00002   0.00000  Uiso   1.00
C67    C     0.78078   0.28079   0.50000   0.00000  Uiso   1.00
C68    C     0.79172   0.23888   0.49999   0.00000  Uiso   1.00
C69    C     0.76117   0.20832   0.50001   0.00000  Uiso   1.00
C70    C     0.71925   0.21925   0.50000   0.00000  Uiso   1.00
C71    C     0.70831   0.26116   0.49999   0.00000  Uiso   1.00
C72    C     0.73886   0.29172   0.50001   0.00000  Uiso   1.00
H23    H     0.80447   0.30449   0.50000   0.00000  Uiso   1.00
O45    O     0.83286   0.22652   0.49996   0.00000  Uiso   1.00
O46    O     0.77354   0.16718   0.50004   0.00000  Uiso   1.00
H24    H     0.69556   0.19555   0.50000   0.00000  Uiso   1.00
O47    O     0.66717   0.27352   0.49996   0.00000  Uiso   1.00
O48    O     0.72649   0.33286   0.50004   0.00000  Uiso   1.00
C73    C     0.11413   0.11413   0.66664   0.00000  Uiso   1.00
C74    C     0.07222   0.12507   0.66665   0.00000  Uiso   1.00
C75    C     0.04166   0.09452   0.66667   0.00000  Uiso   1.00
C76    C     0.05260   0.05260   0.66668   0.00000  Uiso   1.00
C77    C     0.09451   0.04166   0.66668   0.00000  Uiso   1.00
C78    C     0.12507   0.07222   0.66665   0.00000  Uiso   1.00
H25    H     0.13783   0.13783   0.66663   0.00000  Uiso   1.00
O49    O     0.05985   0.16621   0.66662   0.00000  Uiso   1.00
O50    O     0.00052   0.10688   0.66670   0.00000  Uiso   1.00
H26    H     0.02890   0.02891   0.66670   0.00000  Uiso   1.00
O51    O     0.10688   0.00053   0.66671   0.00000  Uiso   1.00
O52    O     0.16620   0.05985   0.66663   0.00000  Uiso   1.00
C79    C     0.88593   0.61411   0.16667   0.00000  Uiso   1.00
C80    C     0.87499   0.57219   0.16668   0.00000  Uiso   1.00
C81    C     0.90555   0.54164   0.16672   0.00000  Uiso   1.00
C82    C     0.94746   0.55257   0.16673   0.00000  Uiso   1.00
C83    C     0.95840   0.59449   0.16672   0.00000  Uiso   1.00
C84    C     0.92784   0.62505   0.16669   0.00000  Uiso   1.00
H27    H     0.86223   0.63780   0.16665   0.00000  Uiso   1.00
O53    O     0.83385   0.55982   0.16665   0.00000  Uiso   1.00
O54    O     0.89318   0.50050   0.16675   0.00000  Uiso   1.00
H28    H     0.97116   0.52888   0.16675   0.00000  Uiso   1.00
O55    O     0.99953   0.60685   0.16675   0.00000  Uiso   1.00
O56    O     0.94021   0.66618   0.16665   0.00000  Uiso   1.00
C85    C     0.38590   0.38591   0.66664   0.00000  Uiso   1.00
C86    C     0.37496   0.42782   0.66665   0.00000  Uiso   1.00
C87    C     0.40552   0.45838   0.66667   0.00000  Uiso   1.00
C88    C     0.44743   0.44744   0.66668   0.00000  Uiso   1.00
C89    C     0.45837   0.40552   0.66667   0.00000  Uiso   1.00
C90    C     0.42781   0.37497   0.66665   0.00000  Uiso   1.00
H29    H     0.36220   0.36221   0.66662   0.00000  Uiso   1.00
O57    O     0.33383   0.44019   0.66662   0.00000  Uiso   1.00
O58    O     0.39316   0.49951   0.66670   0.00000  Uiso   1.00
H30    H     0.47113   0.47113   0.66669   0.00000  Uiso   1.00
O59    O     0.49951   0.39316   0.66670   0.00000  Uiso   1.00
O60    O     0.44018   0.33383   0.66662   0.00000  Uiso   1.00
C91    C     0.55257   0.94747   0.16672   0.00000  Uiso   1.00
C92    C     0.54163   0.90555   0.16671   0.00000  Uiso   1.00
C93    C     0.57219   0.87499   0.16668   0.00000  Uiso   1.00
C94    C     0.61411   0.88593   0.16667   0.00000  Uiso   1.00
C95    C     0.62504   0.92785   0.16668   0.00000  Uiso   1.00
C96    C     0.59449   0.95841   0.16671   0.00000  Uiso   1.00
H31    H     0.52888   0.97116   0.16674   0.00000  Uiso   1.00
O61    O     0.50050   0.89319   0.16675   0.00000  Uiso   1.00
O62    O     0.55982   0.83386   0.16665   0.00000  Uiso   1.00
H32    H     0.63780   0.86224   0.16664   0.00000  Uiso   1.00
O63    O     0.66618   0.94022   0.16664   0.00000  Uiso   1.00
O64    O     0.60685   0.99954   0.16674   0.00000  Uiso   1.00
C97    C     0.05260   0.44744   0.83335   0.00000  Uiso   1.00
C98    C     0.04166   0.40553   0.83335   0.00000  Uiso   1.00
C99    C     0.07222   0.37497   0.83338   0.00000  Uiso   1.00
C100   C     0.11413   0.38591   0.83339   0.00000  Uiso   1.00
C101   C     0.12507   0.42782   0.83338   0.00000  Uiso   1.00
C102   C     0.09451   0.45838   0.83336   0.00000  Uiso   1.00
H33    H     0.02890   0.47114   0.83333   0.00000  Uiso   1.00
O65    O     0.00052   0.39316   0.83332   0.00000  Uiso   1.00
O66    O     0.05985   0.33384   0.83340   0.00000  Uiso   1.00
H34    H     0.13783   0.36221   0.83340   0.00000  Uiso   1.00
O67    O     0.16621   0.44019   0.83341   0.00000  Uiso   1.00
O68    O     0.10688   0.49952   0.83333   0.00000  Uiso   1.00
C103   C     0.61410   0.61411   0.33336   0.00000  Uiso   1.00
C104   C     0.62504   0.57220   0.33335   0.00000  Uiso   1.00
C105   C     0.59448   0.54164   0.33332   0.00000  Uiso   1.00
C106   C     0.55257   0.55258   0.33331   0.00000  Uiso   1.00
C107   C     0.54163   0.59449   0.33332   0.00000  Uiso   1.00
C108   C     0.57219   0.62505   0.33335   0.00000  Uiso   1.00
H35    H     0.63780   0.63781   0.33339   0.00000  Uiso   1.00
O69    O     0.66618   0.55983   0.33338   0.00000  Uiso   1.00
O70    O     0.60685   0.50050   0.33328   0.00000  Uiso   1.00
H36    H     0.52887   0.52888   0.33328   0.00000  Uiso   1.00
O71    O     0.50050   0.60686   0.33329   0.00000  Uiso   1.00
O72    O     0.55982   0.66619   0.33339   0.00000  Uiso   1.00
C109   C     0.38590   0.11413   0.83339   0.00000  Uiso   1.00
C110   C     0.37496   0.07221   0.83338   0.00000  Uiso   1.00
C111   C     0.40552   0.04166   0.83335   0.00000  Uiso   1.00
C112   C     0.44744   0.05260   0.83335   0.00000  Uiso   1.00
C113   C     0.45837   0.09451   0.83335   0.00000  Uiso   1.00
C114   C     0.42782   0.12507   0.83338   0.00000  Uiso   1.00
H37    H     0.36220   0.13782   0.83340   0.00000  Uiso   1.00
O73    O     0.33383   0.05984   0.83341   0.00000  Uiso   1.00
O74    O     0.39316   0.00052   0.83332   0.00000  Uiso   1.00
H38    H     0.47113   0.02890   0.83333   0.00000  Uiso   1.00
O75    O     0.49951   0.10688   0.83332   0.00000  Uiso   1.00
O76    O     0.44018   0.16620   0.83340   0.00000  Uiso   1.00
C115   C     0.88592   0.88593   0.33337   0.00000  Uiso   1.00
C116   C     0.92784   0.87499   0.33336   0.00000  Uiso   1.00
C117   C     0.95839   0.90555   0.33332   0.00000  Uiso   1.00
C118   C     0.94746   0.94746   0.33331   0.00000  Uiso   1.00
C119   C     0.90554   0.95840   0.33332   0.00000  Uiso   1.00
C120   C     0.87498   0.92784   0.33335   0.00000  Uiso   1.00
H39    H     0.86222   0.86223   0.33339   0.00000  Uiso   1.00
O77    O     0.94020   0.83385   0.33339   0.00000  Uiso   1.00
O78    O     0.99953   0.89318   0.33329   0.00000  Uiso   1.00
H40    H     0.97115   0.97116   0.33328   0.00000  Uiso   1.00
O79    O     0.89318   0.99954   0.33328   0.00000  Uiso   1.00
O80    O     0.83385   0.94021   0.33338   0.00000  Uiso   1.00
C121   C     0.66665   0.11414   0.11412   0.00000  Uiso   1.00
C122   C     0.66665   0.12507   0.07221   0.00000  Uiso   1.00
C123   C     0.66668   0.09451   0.04165   0.00000  Uiso   1.00
C124   C     0.66668   0.05260   0.05259   0.00000  Uiso   1.00
C125   C     0.66668   0.04166   0.09450   0.00000  Uiso   1.00
C126   C     0.66665   0.07222   0.12506   0.00000  Uiso   1.00
H41    H     0.66663   0.13783   0.13782   0.00000  Uiso   1.00
O81    O     0.66663   0.16621   0.05984   0.00000  Uiso   1.00
O82    O     0.66671   0.10688   0.00051   0.00000  Uiso   1.00
H42    H     0.66670   0.02890   0.02889   0.00000  Uiso   1.00
O83    O     0.66671   0.00053   0.10687   0.00000  Uiso   1.00
O84    O     0.66662   0.05985   0.16620   0.00000  Uiso   1.00
C127   C     0.88593   0.16668   0.61410   0.00000  Uiso   1.00
C128   C     0.87499   0.16669   0.57219   0.00000  Uiso   1.00
C129   C     0.90555   0.16672   0.54163   0.00000  Uiso   1.00
C130   C     0.94746   0.16673   0.55257   0.00000  Uiso   1.00
C131   C     0.95840   0.16672   0.59448   0.00000  Uiso   1.00
C132   C     0.92784   0.16669   0.62504   0.00000  Uiso   1.00
H43    H     0.86223   0.16665   0.63780   0.00000  Uiso   1.00
O85    O     0.83385   0.16665   0.55982   0.00000  Uiso   1.00
O86    O     0.89318   0.16675   0.50049   0.00000  Uiso   1.00
H44    H     0.97116   0.16675   0.52887   0.00000  Uiso   1.00
O87    O     0.99953   0.16675   0.60685   0.00000  Uiso   1.00
O88    O     0.94021   0.16665   0.66618   0.00000  Uiso   1.00
C133   C     0.83339   0.38591   0.11412   0.00000  Uiso   1.00
C134   C     0.83338   0.37497   0.07221   0.00000  Uiso   1.00
C135   C     0.83335   0.40553   0.04165   0.00000  Uiso   1.00
C136   C     0.83335   0.44744   0.05259   0.00000  Uiso   1.00
C137   C     0.83336   0.45838   0.09451   0.00000  Uiso   1.00
C138   C     0.83338   0.42782   0.12507   0.00000  Uiso   1.00
H45    H     0.83340   0.36221   0.13782   0.00000  Uiso   1.00
O89    O     0.83341   0.33383   0.05984   0.00000  Uiso   1.00
O90    O     0.83332   0.39316   0.00052   0.00000  Uiso   1.00
H46    H     0.83333   0.47114   0.02890   0.00000  Uiso   1.00
O91    O     0.83333   0.49951   0.10688   0.00000  Uiso   1.00
O92    O     0.83341   0.44019   0.16620   0.00000  Uiso   1.00
C139   C     0.55257   0.33331   0.55257   0.00000  Uiso   1.00
C140   C     0.59448   0.33332   0.54163   0.00000  Uiso   1.00
C141   C     0.62504   0.33335   0.57219   0.00000  Uiso   1.00
C142   C     0.61410   0.33336   0.61410   0.00000  Uiso   1.00
C143   C     0.57219   0.33335   0.62504   0.00000  Uiso   1.00
C144   C     0.54163   0.33332   0.59448   0.00000  Uiso   1.00
H47    H     0.52887   0.33328   0.52887   0.00000  Uiso   1.00
O93    O     0.60685   0.33329   0.50049   0.00000  Uiso   1.00
O94    O     0.66618   0.33339   0.55982   0.00000  Uiso   1.00
H48    H     0.63780   0.33339   0.63780   0.00000  Uiso   1.00
O95    O     0.55982   0.33338   0.66617   0.00000  Uiso   1.00
O96    O     0.50049   0.33329   0.60685   0.00000  Uiso   1.00
C145   C     0.66664   0.38591   0.38590   0.00000  Uiso   1.00
C146   C     0.66665   0.37497   0.42781   0.00000  Uiso   1.00
C147   C     0.66667   0.40553   0.45837   0.00000  Uiso   1.00
C148   C     0.66668   0.44744   0.44743   0.00000  Uiso   1.00
C149   C     0.66667   0.45838   0.40552   0.00000  Uiso   1.00
C150   C     0.66665   0.42782   0.37496   0.00000  Uiso   1.00
H49    H     0.66662   0.36221   0.36220   0.00000  Uiso   1.00
O97    O     0.66662   0.33383   0.44018   0.00000  Uiso   1.00
O98    O     0.66670   0.39316   0.49950   0.00000  Uiso   1.00
H50    H     0.66669   0.47114   0.47113   0.00000  Uiso   1.00
O99    O     0.66670   0.49951   0.39315   0.00000  Uiso   1.00
O100   O     0.66662   0.44019   0.33382   0.00000  Uiso   1.00
C151   C     0.55257   0.16673   0.94745   0.00000  Uiso   1.00
C152   C     0.59449   0.16672   0.95839   0.00000  Uiso   1.00
C153   C     0.62505   0.16668   0.92783   0.00000  Uiso   1.00
C154   C     0.61411   0.16667   0.88592   0.00000  Uiso   1.00
C155   C     0.57219   0.16668   0.87498   0.00000  Uiso   1.00
C156   C     0.54163   0.16672   0.90554   0.00000  Uiso   1.00
H51    H     0.52888   0.16675   0.97115   0.00000  Uiso   1.00
O101   O     0.60686   0.16675   0.99953   0.00000  Uiso   1.00
O102   O     0.66618   0.16665   0.94020   0.00000  Uiso   1.00
H52    H     0.63780   0.16665   0.86222   0.00000  Uiso   1.00
O103   O     0.55982   0.16665   0.83385   0.00000  Uiso   1.00
O104   O     0.50050   0.16675   0.89317   0.00000  Uiso   1.00
C157   C     0.83339   0.11413   0.38590   0.00000  Uiso   1.00
C158   C     0.83338   0.07222   0.37496   0.00000  Uiso   1.00
C159   C     0.83335   0.04166   0.40552   0.00000  Uiso   1.00
C160   C     0.83335   0.05260   0.44743   0.00000  Uiso   1.00
C161   C     0.83336   0.09452   0.45837   0.00000  Uiso   1.00
C162   C     0.83338   0.12507   0.42781   0.00000  Uiso   1.00
H53    H     0.83341   0.13783   0.36220   0.00000  Uiso   1.00
O105   O     0.83341   0.05985   0.33382   0.00000  Uiso   1.00
O106   O     0.83332   0.00053   0.39315   0.00000  Uiso   1.00
H54    H     0.83333   0.02891   0.47113   0.00000  Uiso   1.00
O107   O     0.83333   0.10688   0.49951   0.00000  Uiso   1.00
O108   O     0.83341   0.16621   0.44018   0.00000  Uiso   1.00
C163   C     0.94746   0.33332   0.94745   0.00000  Uiso   1.00
C164   C     0.90554   0.33333   0.95839   0.00000  Uiso   1.00
C165   C     0.87499   0.33336   0.92783   0.00000  Uiso   1.00
C166   C     0.88593   0.33338   0.88592   0.00000  Uiso   1.00
C167   C     0.92784   0.33336   0.87498   0.00000  Uiso   1.00
C168   C     0.95840   0.33333   0.90554   0.00000  Uiso   1.00
H55    H     0.97115   0.33329   0.97115   0.00000  Uiso   1.00
O109   O     0.89318   0.33330   0.99953   0.00000  Uiso   1.00
O110   O     0.83385   0.33340   0.94020   0.00000  Uiso   1.00
H56    H     0.86223   0.33340   0.86222   0.00000  Uiso   1.00
O111   O     0.94021   0.33340   0.83385   0.00000  Uiso   1.00
O112   O     0.99953   0.33329   0.89317   0.00000  Uiso   1.00
C169   C     0.11413   0.66664   0.11414   0.00000  Uiso   1.00
C170   C     0.07222   0.66665   0.12508   0.00000  Uiso   1.00
C171   C     0.04166   0.66668   0.09452   0.00000  Uiso   1.00
C172   C     0.05260   0.66668   0.05260   0.00000  Uiso   1.00
C173   C     0.09451   0.66668   0.04167   0.00000  Uiso   1.00
C174   C     0.12507   0.66665   0.07222   0.00000  Uiso   1.00
H57    H     0.13783   0.66663   0.13783   0.00000  Uiso   1.00
O113   O     0.05985   0.66663   0.16621   0.00000  Uiso   1.00
O114   O     0.00052   0.66671   0.10688   0.00000  Uiso   1.00
H58    H     0.02890   0.66670   0.02891   0.00000  Uiso   1.00
O115   O     0.10688   0.66671   0.00053   0.00000  Uiso   1.00
O116   O     0.16620   0.66662   0.05986   0.00000  Uiso   1.00
C175   C     0.05259   0.83335   0.44744   0.00000  Uiso   1.00
C176   C     0.04165   0.83336   0.40553   0.00000  Uiso   1.00
C177   C     0.07221   0.83338   0.37497   0.00000  Uiso   1.00
C178   C     0.11413   0.83339   0.38591   0.00000  Uiso   1.00
C179   C     0.12506   0.83339   0.42782   0.00000  Uiso   1.00
C180   C     0.09451   0.83336   0.45838   0.00000  Uiso   1.00
H59    H     0.02890   0.83334   0.47114   0.00000  Uiso   1.00
O117   O     0.00052   0.83333   0.39316   0.00000  Uiso   1.00
O118   O     0.05984   0.83341   0.33383   0.00000  Uiso   1.00
H60    H     0.13782   0.83341   0.36221   0.00000  Uiso   1.00
O119   O     0.16620   0.83341   0.44019   0.00000  Uiso   1.00
O120   O     0.10687   0.83333   0.49951   0.00000  Uiso   1.00
C181   C     0.16673   0.55257   0.94747   0.00000  Uiso   1.00
C182   C     0.16672   0.54164   0.90555   0.00000  Uiso   1.00
C183   C     0.16669   0.57220   0.87499   0.00000  Uiso   1.00
C184   C     0.16667   0.61411   0.88593   0.00000  Uiso   1.00
C185   C     0.16668   0.62505   0.92785   0.00000  Uiso   1.00
C186   C     0.16672   0.59449   0.95841   0.00000  Uiso   1.00
H61    H     0.16675   0.52888   0.97116   0.00000  Uiso   1.00
O121   O     0.16675   0.50050   0.89318   0.00000  Uiso   1.00
O122   O     0.16665   0.55983   0.83386   0.00000  Uiso   1.00
H62    H     0.16665   0.63781   0.86224   0.00000  Uiso   1.00
O123   O     0.16665   0.66618   0.94022   0.00000  Uiso   1.00
O124   O     0.16675   0.60685   0.99954   0.00000  Uiso   1.00
C187   C     0.38590   0.66665   0.38590   0.00000  Uiso   1.00
C188   C     0.42782   0.66666   0.37497   0.00000  Uiso   1.00
C189   C     0.45837   0.66668   0.40552   0.00000  Uiso   1.00
C190   C     0.44743   0.66669   0.44744   0.00000  Uiso   1.00
C191   C     0.40552   0.66668   0.45838   0.00000  Uiso   1.00
C192   C     0.37496   0.66666   0.42782   0.00000  Uiso   1.00
H63    H     0.36220   0.66664   0.36221   0.00000  Uiso   1.00
O125   O     0.44018   0.66663   0.33383   0.00000  Uiso   1.00
O126   O     0.49951   0.66672   0.39316   0.00000  Uiso   1.00
H64    H     0.47113   0.66671   0.47113   0.00000  Uiso   1.00
O127   O     0.39315   0.66671   0.49951   0.00000  Uiso   1.00
O128   O     0.33383   0.66663   0.44019   0.00000  Uiso   1.00
C193   C     0.33331   0.94746   0.94746   0.00000  Uiso   1.00
C194   C     0.33332   0.95840   0.90555   0.00000  Uiso   1.00
C195   C     0.33335   0.92784   0.87499   0.00000  Uiso   1.00
C196   C     0.33337   0.88592   0.88593   0.00000  Uiso   1.00
C197   C     0.33335   0.87499   0.92784   0.00000  Uiso   1.00
C198   C     0.33332   0.90555   0.95840   0.00000  Uiso   1.00
H65    H     0.33328   0.97116   0.97116   0.00000  Uiso   1.00
O129   O     0.33329   0.99953   0.89318   0.00000  Uiso   1.00
O130   O     0.33339   0.94021   0.83385   0.00000  Uiso   1.00
H66    H     0.33339   0.86223   0.86223   0.00000  Uiso   1.00
O131   O     0.33339   0.83385   0.94021   0.00000  Uiso   1.00
O132   O     0.33329   0.89318   0.99953   0.00000  Uiso   1.00
C199   C     0.44744   0.83335   0.05260   0.00000  Uiso   1.00
C200   C     0.40552   0.83336   0.04166   0.00000  Uiso   1.00
C201   C     0.37496   0.83338   0.07222   0.00000  Uiso   1.00
C202   C     0.38590   0.83339   0.11413   0.00000  Uiso   1.00
C203   C     0.42782   0.83339   0.12507   0.00000  Uiso   1.00
C204   C     0.45837   0.83336   0.09451   0.00000  Uiso   1.00
H67    H     0.47113   0.83334   0.02890   0.00000  Uiso   1.00
O133   O     0.39316   0.83333   0.00052   0.00000  Uiso   1.00
O134   O     0.33383   0.83341   0.05985   0.00000  Uiso   1.00
H68    H     0.36221   0.83341   0.13783   0.00000  Uiso   1.00
O135   O     0.44019   0.83342   0.16621   0.00000  Uiso   1.00
O136   O     0.49951   0.83333   0.10688   0.00000  Uiso   1.00
C205   C     0.16672   0.94746   0.55257   0.00000  Uiso   1.00
C206   C     0.16671   0.90555   0.54164   0.00000  Uiso   1.00
C207   C     0.16668   0.87499   0.57219   0.00000  Uiso   1.00
C208   C     0.16667   0.88593   0.61411   0.00000  Uiso   1.00
C209   C     0.16668   0.92784   0.62505   0.00000  Uiso   1.00
C210   C     0.16671   0.95840   0.59449   0.00000  Uiso   1.00
H69    H     0.16675   0.97116   0.52888   0.00000  Uiso   1.00
O137   O     0.16674   0.89318   0.50050   0.00000  Uiso   1.00
O138   O     0.16665   0.83386   0.55982   0.00000  Uiso   1.00
H70    H     0.16664   0.86223   0.63780   0.00000  Uiso   1.00
O139   O     0.16665   0.94021   0.66618   0.00000  Uiso   1.00
O140   O     0.16674   0.99954   0.60686   0.00000  Uiso   1.00
C211   C     0.33336   0.61411   0.61411   0.00000  Uiso   1.00
C212   C     0.33335   0.62505   0.57219   0.00000  Uiso   1.00
C213   C     0.33332   0.59449   0.54164   0.00000  Uiso   1.00
C214   C     0.33331   0.55258   0.55257   0.00000  Uiso   1.00
C215   C     0.33332   0.54164   0.59449   0.00000  Uiso   1.00
C216   C     0.33335   0.57220   0.62505   0.00000  Uiso   1.00
H71    H     0.33339   0.63781   0.63780   0.00000  Uiso   1.00
O141   O     0.33338   0.66619   0.55983   0.00000  Uiso   1.00
O142   O     0.33328   0.60686   0.50050   0.00000  Uiso   1.00
H72    H     0.33328   0.52888   0.52888   0.00000  Uiso   1.00
O143   O     0.33328   0.50050   0.60685   0.00000  Uiso   1.00
O144   O     0.33339   0.55983   0.66618   0.00000  Uiso   1.00
loop_
_geom_bond_atom_site_label_1
_geom_bond_atom_site_label_2
_geom_bond_distance
_geom_bond_site_symmetry_2
_ccdc_geom_bond_type
Fe1    O1      1.932   .     S
Fe1    O2      1.932   .     S
Fe1    O49     1.932   .     S
Fe1    O50     1.932   .     S
Fe1    O87     1.932   1_455 S
Fe1    O88     1.932   1_455 S
Fe2    O5      1.932   .     S
Fe2    O6      1.932   .     S
Fe2    O53     1.932   .     S
Fe2    O54     1.932   .     S
Fe2    O91     1.932   .     S
Fe2    O92     1.932   .     S
Fe3    O11     1.932   .     S
Fe3    O12     1.932   .     S
Fe3    O59     1.932   .     S
Fe3    O60     1.932   .     S
Fe3    O95     1.932   .     S
Fe3    O96     1.932   .     S
Fe4    O13     1.932   .     S
Fe4    O14     1.932   .     S
Fe4    O63     1.932   1_545 S
Fe4    O64     1.932   1_545 S
Fe4    O83     1.932   .     S
Fe4    O84     1.932   .     S
Fe5    O3      1.932   .     S
Fe5    O4      1.932   .     S
Fe5    O65     1.932   .     S
Fe5    O66     1.932   .     S
Fe5    O111    1.932   1_455 S
Fe5    O112    1.932   1_455 S
Fe6    O7      1.932   .     S
Fe6    O8      1.932   .     S
Fe6    O69     1.932   .     S
Fe6    O70     1.932   .     S
Fe6    O99     1.932   .     S
Fe6    O100    1.932   .     S
Fe7    O9      1.932   .     S
Fe7    O10     1.932   .     S
Fe7    O75     1.932   .     S
Fe7    O76     1.932   .     S
Fe7    O103    1.932   .     S
Fe7    O104    1.932   .     S
Fe8    O15     1.932   .     S
Fe8    O16     1.932   .     S
Fe8    O79     1.932   1_545 S
Fe8    O80     1.932   1_545 S
Fe8    O105    1.932   .     S
Fe8    O106    1.932   .     S
Fe9    O19     1.932   .     S
Fe9    O20     1.932   .     S
Fe9    O115    1.932   .     S
Fe9    O116    1.932   .     S
Fe9    O123    1.932   1_554 S
Fe9    O124    1.932   1_554 S
Fe10   O21     1.932   .     S
Fe10   O22     1.932   .     S
Fe10   O119    1.932   .     S
Fe10   O120    1.932   .     S
Fe10   O137    1.932   .     S
Fe10   O138    1.932   .     S
Fe11   O23     1.932   .     S
Fe11   O24     1.932   .     S
Fe11   O127    1.932   .     S
Fe11   O128    1.932   .     S
Fe11   O141    1.932   .     S
Fe11   O142    1.932   .     S
Fe12   O17     1.932   .     S
Fe12   O18     1.932   .     S
Fe12   O131    1.932   1_554 S
Fe12   O132    1.932   1_554 S
Fe12   O133    1.932   .     S
Fe12   O134    1.932   .     S
Fe13   O27     1.932   .     S
Fe13   O28     1.932   .     S
Fe13   O77     1.932   1_455 S
Fe13   O78     1.932   1_455 S
Fe13   O117    1.932   .     S
Fe13   O118    1.932   .     S
Fe14   O29     1.932   .     S
Fe14   O30     1.932   .     S
Fe14   O67     1.932   .     S
Fe14   O68     1.932   .     S
Fe14   O121    1.932   .     S
Fe14   O122    1.932   .     S
Fe15   O33     1.932   .     S
Fe15   O34     1.932   .     S
Fe15   O71     1.932   .     S
Fe15   O72     1.932   .     S
Fe15   O125    1.932   .     S
Fe15   O126    1.932   .     S
Fe16   O39     1.932   .     S
Fe16   O40     1.932   .     S
Fe16   O73     1.932   .     S
Fe16   O74     1.932   .     S
Fe16   O129    1.932   1_545 S
Fe16   O130    1.932   1_545 S
Fe17   O25     1.932   .     S
Fe17   O26     1.932   .     S
Fe17   O55     1.932   1_455 S
Fe17   O56     1.932   1_455 S
Fe17   O113    1.932   .     S
Fe17   O114    1.932   .     S
Fe18   O31     1.932   .     S
Fe18   O32     1.932   .     S
Fe18   O57     1.932   .     S
Fe18   O58     1.932   .     S
Fe18   O143    1.932   .     S
Fe18   O144    1.932   .     S
Fe19   O35     1.932   .     S
Fe19   O36     1.932   .     S
Fe19   O61     1.932   .     S
Fe19   O62     1.932   .     S
Fe19   O135    1.932   .     S
Fe19   O136    1.932   .     S
Fe20   O37     1.932   .     S
Fe20   O38     1.932   .     S
Fe20   O51     1.932   .     S
Fe20   O52     1.932   .     S
Fe20   O139    1.932   1_545 S
Fe20   O140    1.932   1_545 S
Fe21   O41     1.932   .     S
Fe21   O42     1.932   .     S
Fe21   O89     1.932   .     S
Fe21   O90     1.932   .     S
Fe21   O109    1.932   1_554 S
Fe21   O110    1.932   1_554 S
Fe22   O45     1.932   .     S
Fe22   O46     1.932   .     S
Fe22   O85     1.932   .     S
Fe22   O86     1.932   .     S
Fe22   O107    1.932   .     S
Fe22   O108    1.932   .     S
Fe23   O47     1.932   .     S
Fe23   O48     1.932   .     S
Fe23   O93     1.932   .     S
Fe23   O94     1.932   .     S
Fe23   O97     1.932   .     S
Fe23   O98     1.932   .     S
Fe24   O43     1.932   .     S
Fe24   O44     1.932   .     S
Fe24   O81     1.932   .     S
Fe24   O82     1.932   .     S
Fe24   O101    1.932   1_554 S
Fe24   O102    1.932   1_554 S
C1     C2      1.399   .     A
C1     C6      1.399   .     A
C1     H1      1.083   .     S
C2     C3      1.396   .     A
C2     O1      1.388   .     S
C3     C4      1.399   .     A
C3     O2      1.388   .     S
C4     C5      1.399   .     A
C4     H2      1.083   .     S
C5     C6      1.396   .     A
C5     O3      1.388   .     S
C6     O4      1.388   .     S
C7     C8      1.399   .     A
C7     C12     1.399   .     A
C7     H3      1.083   .     S
C8     C9      1.396   .     A
C8     O5      1.388   .     S
C9     C10     1.399   .     A
C9     O6      1.388   .     S
C10    C11     1.399   .     A
C10    H4      1.083   .     S
C11    C12     1.396   .     A
C11    O7      1.388   .     S
C12    O8      1.388   .     S
C13    C14     1.399   .     A
C13    C18     1.399   .     A
C13    H5      1.083   .     S
C14    C15     1.396   .     A
C14    O9      1.388   .     S
C15    C16     1.399   .     A
C15    O10     1.388   .     S
C16    C17     1.399   .     A
C16    H6      1.083   .     S
C17    C18     1.396   .     A
C17    O11     1.388   .     S
C18    O12     1.388   .     S
C19    C20     1.399   .     A
C19    C24     1.399   .     A
C19    H7      1.083   .     S
C20    C21     1.396   .     A
C20    O13     1.388   .     S
C21    C22     1.399   .     A
C21    O14     1.388   .     S
C22    C23     1.399   .     A
C22    H8      1.083   .     S
C23    C24     1.396   .     A
C23    O15     1.388   .     S
C24    O16     1.388   .     S
C25    C26     1.399   .     A
C25    C30     1.399   .     A
C25    H9      1.083   .     S
C26    C27     1.396   .     A
C26    O17     1.388   .     S
C27    C28     1.399   .     A
C27    O18     1.388   .     S
C28    C29     1.399   .     A
C28    H10     1.083   .     S
C29    C30     1.396   .     A
C29    O19     1.388   .     S
C30    O20     1.388   .     S
C31    C32     1.399   .     A
C31    C36     1.399   .     A
C31    H11     1.083   .     S
C32    C33     1.396   .     A
C32    O21     1.388   .     S
C33    C34     1.399   .     A
C33    O22     1.388   .     S
C34    C35     1.399   .     A
C34    H12     1.083   .     S
C35    C36     1.396   .     A
C35    O23     1.388   .     S
C36    O24     1.388   .     S
C37    C38     1.399   .     A
C37    C42     1.399   .     A
C37    H13     1.083   .     S
C38    C39     1.396   .     A
C38    O25     1.388   .     S
C39    C40     1.399   .     A
C39    O26     1.388   .     S
C40    C41     1.399   .     A
C40    H14     1.083   .     S
C41    C42     1.396   .     A
C41    O27     1.388   .     S
C42    O28     1.388   .     S
C43    C44     1.399   .     A
C43    C48     1.399   .     A
C43    H15     1.083   .     S
C44    C45     1.396   .     A
C44    O29     1.388   .     S
C45    C46     1.399   .     A
C45    O30     1.388   .     S
C46    C47     1.399   .     A
C46    H16     1.083   .     S
C47    C48     1.396   .     A
C47    O31     1.388   .     S
C48    O32     1.388   .     S
C49    C50     1.399   .     A
C49    C54     1.399   .     A
C49    H17     1.083   .     S
C50    C51     1.396   .     A
C50    O33     1.388   .     S
C51    C52     1.399   .     A
C51    O34     1.388   .     S
C52    C53     1.399   .     A
C52    H18     1.083   .     S
C53    C54     1.396   .     A
C53    O35     1.388   .     S
C54    O36     1.388   .     S
C55    C56     1.399   .     A
C55    C60     1.399   .     A
C55    H19     1.083   .     S
C56    C57     1.396   .     A
C56    O37     1.388   .     S
C57    C58     1.399   .     A
C57    O38     1.388   .     S
C58    C59     1.399   .     A
C58    H20     1.083   .     S
C59    C60     1.396   .     A
C59    O39     1.388   .     S
C60    O40     1.388   .     S
C61    C62     1.399   .     A
C61    C66     1.399   .     A
C61    H21     1.083   .     S
C62    C63     1.396   .     A
C62    O41     1.388   .     S
C63    C64     1.399   .     A
C63    O42     1.388   .     S
C64    C65     1.399   .     A
C64    H22     1.083   .     S
C65    C66     1.396   .     A
C65    O43     1.388   .     S
C66    O44     1.388   .     S
C67    C68     1.399   .     A
C67    C72     1.399   .     A
C67    H23     1.083   .     S
C68    C69     1.396   .     A
C68    O45     1.388   .     S
C69    C70     1.399   .     A
C69    O46     1.388   .     S
C70    C71     1.399   .     A
C70    H24     1.083   .     S
C71    C72     1.396   .     A
C71    O47     1.388   .     S
C72    O48     1.388   .     S
C73    C74     1.399   .     A
C73    C78     1.399   .     A
C73    H25     1.083   .     S
C74    C75     1.396   .     A
C74    O49     1.388   .     S
C75    C76     1.399   .     A
C75    O50     1.388   .     S
C76    C77     1.399   .     A
C76    H26     1.083   .     S
C77    C78     1.396   .     A
C77    O51     1.388   .     S
C78    O52     1.388   .     S
C79    C80     1.399   .     A
C79    C84     1.399   .     A
C79    H27     1.083   .     S
C80    C81     1.396   .     A
C80    O53     1.388   .     S
C81    C82     1.399   .     A
C81    O54     1.388   .     S
C82    C83     1.399   .     A
C82    H28     1.083   .     S
C83    C84     1.396   .     A
C83    O55     1.388   .     S
C84    O56     1.388   .     S
O55    Fe17    1.932   1_655 S
O56    Fe17    1.932   1_655 S
C85    C86     1.399   .     A
C85    C90     1.399   .     A
C85    H29     1.083   .     S
C86    C87     1.396   .     A
C86    O57     1.388   .     S
C87    C88     1.399   .     A
C87    O58     1.388   .     S
C88    C89     1.399   .     A
C88    H30     1.083   .     S
C89    C90     1.396   .     A
C89    O59     1.388   .     S
C90    O60     1.388   .     S
C91    C92     1.399   .     A
C91    C96     1.399   .     A
C91    H31     1.083   .     S
C92    C93     1.396   .     A
C92    O61     1.388   .     S
C93    C94     1.399   .     A
C93    O62     1.388   .     S
C94    C95     1.399   .     A
C94    H32     1.083   .     S
C95    C96     1.396   .     A
C95    O63     1.388   .     S
C96    O64     1.388   .     S
O63    Fe4     1.932   1_565 S
O64    Fe4     1.932   1_565 S
C97    C98     1.399   .     A
C97    C102    1.399   .     A
C97    H33     1.083   .     S
C98    C99     1.396   .     A
C98    O65     1.388   .     S
C99    C100    1.399   .     A
C99    O66     1.388   .     S
C100   C101    1.399   .     A
C100   H34     1.083   .     S
C101   C102    1.396   .     A
C101   O67     1.388   .     S
C102   O68     1.388   .     S
C103   C104    1.399   .     A
C103   C108    1.399   .     A
C103   H35     1.083   .     S
C104   C105    1.396   .     A
C104   O69     1.388   .     S
C105   C106    1.399   .     A
C105   O70     1.388   .     S
C106   C107    1.399   .     A
C106   H36     1.083   .     S
C107   C108    1.396   .     A
C107   O71     1.388   .     S
C108   O72     1.388   .     S
C109   C110    1.399   .     A
C109   C114    1.399   .     A
C109   H37     1.083   .     S
C110   C111    1.396   .     A
C110   O73     1.388   .     S
C111   C112    1.399   .     A
C111   O74     1.388   .     S
C112   C113    1.399   .     A
C112   H38     1.083   .     S
C113   C114    1.396   .     A
C113   O75     1.388   .     S
C114   O76     1.388   .     S
C115   C116    1.399   .     A
C115   C120    1.399   .     A
C115   H39     1.083   .     S
C116   C117    1.396   .     A
C116   O77     1.388   .     S
C117   C118    1.399   .     A
C117   O78     1.388   .     S
C118   C119    1.399   .     A
C118   H40     1.083   .     S
C119   C120    1.396   .     A
C119   O79     1.388   .     S
C120   O80     1.388   .     S
O77    Fe13    1.932   1_655 S
O78    Fe13    1.932   1_655 S
O79    Fe8     1.932   1_565 S
O80    Fe8     1.932   1_565 S
C121   C122    1.399   .     A
C121   C126    1.399   .     A
C121   H41     1.083   .     S
C122   C123    1.396   .     A
C122   O81     1.388   .     S
C123   C124    1.399   .     A
C123   O82     1.388   .     S
C124   C125    1.399   .     A
C124   H42     1.083   .     S
C125   C126    1.396   .     A
C125   O83     1.388   .     S
C126   O84     1.388   .     S
C127   C128    1.399   .     A
C127   C132    1.399   .     A
C127   H43     1.083   .     S
C128   C129    1.396   .     A
C128   O85     1.388   .     S
C129   C130    1.399   .     A
C129   O86     1.388   .     S
C130   C131    1.399   .     A
C130   H44     1.083   .     S
C131   C132    1.396   .     A
C131   O87     1.388   .     S
C132   O88     1.388   .     S
O87    Fe1     1.932   1_655 S
O88    Fe1     1.932   1_655 S
C133   C134    1.399   .     A
C133   C138    1.399   .     A
C133   H45     1.083   .     S
C134   C135    1.396   .     A
C134   O89     1.388   .     S
C135   C136    1.399   .     A
C135   O90     1.388   .     S
C136   C137    1.399   .     A
C136   H46     1.083   .     S
C137   C138    1.396   .     A
C137   O91     1.388   .     S
C138   O92     1.388   .     S
C139   C140    1.399   .     A
C139   C144    1.399   .     A
C139   H47     1.083   .     S
C140   C141    1.396   .     A
C140   O93     1.388   .     S
C141   C142    1.399   .     A
C141   O94     1.388   .     S
C142   C143    1.399   .     A
C142   H48     1.083   .     S
C143   C144    1.396   .     A
C143   O95     1.388   .     S
C144   O96     1.388   .     S
C145   C146    1.399   .     A
C145   C150    1.399   .     A
C145   H49     1.083   .     S
C146   C147    1.396   .     A
C146   O97     1.388   .     S
C147   C148    1.399   .     A
C147   O98     1.388   .     S
C148   C149    1.399   .     A
C148   H50     1.083   .     S
C149   C150    1.396   .     A
C149   O99     1.388   .     S
C150   O100    1.388   .     S
C151   C152    1.399   .     A
C151   C156    1.399   .     A
C151   H51     1.083   .     S
C152   C153    1.396   .     A
C152   O101    1.388   .     S
C153   C154    1.399   .     A
C153   O102    1.388   .     S
C154   C155    1.399   .     A
C154   H52     1.083   .     S
C155   C156    1.396   .     A
C155   O103    1.388   .     S
C156   O104    1.388   .     S
O101   Fe24    1.932   1_556 S
O102   Fe24    1.932   1_556 S
C157   C158    1.399   .     A
C157   C162    1.399   .     A
C157   H53     1.083   .     S
C158   C159    1.396   .     A
C158   O105    1.388   .     S
C159   C160    1.399   .     A
C159   O106    1.388   .     S
C160   C161    1.399   .     A
C160   H54     1.083   .     S
C161   C162    1.396   .     A
C161   O107    1.388   .     S
C162   O108    1.388   .     S
C163   C164    1.399   .     A
C163   C168    1.399   .     A
C163   H55     1.083   .     S
C164   C165    1.396   .     A
C164   O109    1.388   .     S
C165   C166    1.399   .     A
C165   O110    1.388   .     S
C166   C167    1.399   .     A
C166   H56     1.083   .     S
C167   C168    1.396   .     A
C167   O111    1.388   .     S
C168   O112    1.388   .     S
O109   Fe21    1.932   1_556 S
O110   Fe21    1.932   1_556 S
O111   Fe5     1.932   1_655 S
O112   Fe5     1.932   1_655 S
C169   C170    1.399   .     A
C169   C174    1.399   .     A
C169   H57     1.083   .     S
C170   C171    1.396   .     A
C170   O113    1.388   .     S
C171   C172    1.399   .     A
C171   O114    1.388   .     S
C172   C173    1.399   .     A
C172   H58     1.083   .     S
C173   C174    1.396   .     A
C173   O115    1.388   .     S
C174   O116    1.388   .     S
C175   C176    1.399   .     A
C175   C180    1.399   .     A
C175   H59     1.083   .     S
C176   C177    1.396   .     A
C176   O117    1.388   .     S
C177   C178    1.399   .     A
C177   O118    1.388   .     S
C178   C179    1.399   .     A
C178   H60     1.083   .     S
C179   C180    1.396   .     A
C179   O119    1.388   .     S
C180   O120    1.388   .     S
C181   C182    1.399   .     A
C181   C186    1.399   .     A
C181   H61     1.083   .     S
C182   C183    1.396   .     A
C182   O121    1.388   .     S
C183   C184    1.399   .     A
C183   O122    1.388   .     S
C184   C185    1.399   .     A
C184   H62     1.083   .     S
C185   C186    1.396   .     A
C185   O123    1.388   .     S
C186   O124    1.388   .     S
O123   Fe9     1.932   1_556 S
O124   Fe9     1.932   1_556 S
C187   C188    1.399   .     A
C187   C192    1.399   .     A
C187   H63     1.083   .     S
C188   C189    1.396   .     A
C188   O125    1.388   .     S
C189   C190    1.399   .     A
C189   O126    1.388   .     S
C190   C191    1.399   .     A
C190   H64     1.083   .     S
C191   C192    1.396   .     A
C191   O127    1.388   .     S
C192   O128    1.388   .     S
C193   C194    1.399   .     A
C193   C198    1.399   .     A
C193   H65     1.083   .     S
C194   C195    1.396   .     A
C194   O129    1.388   .     S
C195   C196    1.399   .     A
C195   O130    1.388   .     S
C196   C197    1.399   .     A
C196   H66     1.083   .     S
C197   C198    1.396   .     A
C197   O131    1.388   .     S
C198   O132    1.388   .     S
O129   Fe16    1.932   1_565 S
O130   Fe16    1.932   1_565 S
O131   Fe12    1.932   1_556 S
O132   Fe12    1.932   1_556 S
C199   C200    1.399   .     A
C199   C204    1.399   .     A
C199   H67     1.083   .     S
C200   C201    1.396   .     A
C200   O133    1.388   .     S
C201   C202    1.399   .     A
C201   O134    1.388   .     S
C202   C203    1.399   .     A
C202   H68     1.083   .     S
C203   C204    1.396   .     A
C203   O135    1.388   .     S
C204   O136    1.388   .     S
C205   C206    1.399   .     A
C205   C210    1.399   .     A
C205   H69     1.083   .     S
C206   C207    1.396   .     A
C206   O137    1.388   .     S
C207   C208    1.399   .     A
C207   O138    1.388   .     S
C208   C209    1.399   .     A
C208   H70     1.083   .     S
C209   C210    1.396   .     A
C209   O139    1.388   .     S
C210   O140    1.388   .     S
O139   Fe20    1.932   1_565 S
O140   Fe20    1.932   1_565 S
C211   C212    1.399   .     A
C211   C216    1.399   .     A
C211   H71     1.083   .     S
C212   C213    1.396   .     A
C212   O141    1.388   .     S
C213   C214    1.399   .     A
C213   O142    1.388   .     S
C214   C215    1.399   .     A
C214   H72     1.083   .     S
C215   C216    1.396   .     A
C215   O143    1.388   .     S
C216   O144    1.388   .     S
