data_ssd-PcM_O-Zntet
_audit_creation_date              2021-11-06
_audit_creation_method            'Materials Studio'
_symmetry_space_group_name_H-M    'P1'
_symmetry_Int_Tables_number       1
_symmetry_cell_setting            triclinic
loop_
_symmetry_equiv_pos_as_xyz
  x,y,z
_cell_length_a                    53.1520
_cell_length_b                    53.1521
_cell_length_c                    53.1521
_cell_angle_alpha                 89.9981
_cell_angle_beta                  90.0006
_cell_angle_gamma                 90.0000
loop_
_atom_site_label
_atom_site_type_symbol
_atom_site_fract_x
_atom_site_fract_y
_atom_site_fract_z
_atom_site_U_iso_or_equiv
_atom_site_adp_type
_atom_site_occupancy
C1     C     0.00033   0.23361   0.35939   0.00000  Uiso   1.00
C2     C     0.00036   0.21077   0.34604   0.00000  Uiso   1.00
C3     C     0.00038   0.21077   0.31920   0.00000  Uiso   1.00
C4     C     0.00037   0.23362   0.30586   0.00000  Uiso   1.00
C5     C     0.00034   0.25586   0.31983   0.00000  Uiso   1.00
C6     C     0.00032   0.25586   0.34543   0.00000  Uiso   1.00
C7     C     0.00029   0.28070   0.35273   0.00000  Uiso   1.00
N1     N     0.00029   0.29653   0.33263   0.00000  Uiso   1.00
C8     C     0.00032   0.28071   0.31253   0.00000  Uiso   1.00
N2     N     0.00035   0.28800   0.28844   0.00000  Uiso   1.00
C9     C     0.00034   0.31210   0.28115   0.00000  Uiso   1.00
N3     N     0.00030   0.33219   0.29698   0.00000  Uiso   1.00
C10    C     0.00031   0.35229   0.28115   0.00000  Uiso   1.00
C11    C     0.00035   0.34499   0.25630   0.00000  Uiso   1.00
C12    C     0.00037   0.31939   0.25630   0.00000  Uiso   1.00
N4     N     0.00018   0.36786   0.33263   0.00000  Uiso   1.00
C13    C     0.00020   0.38368   0.31252   0.00000  Uiso   1.00
N5     N     0.00026   0.37639   0.28843   0.00000  Uiso   1.00
C14    C     0.00015   0.40852   0.31980   0.00000  Uiso   1.00
C15    C     0.00009   0.40852   0.34546   0.00000  Uiso   1.00
C16    C     0.00011   0.38368   0.35274   0.00000  Uiso   1.00
C17    C     0.00041   0.30542   0.23406   0.00000  Uiso   1.00
C18    C     0.00043   0.31876   0.21121   0.00000  Uiso   1.00
C19    C     0.00041   0.34560   0.21121   0.00000  Uiso   1.00
C20    C     0.00037   0.35895   0.23406   0.00000  Uiso   1.00
C21    C     0.00003   0.43085   0.35938   0.00000  Uiso   1.00
C22    C     0.00003   0.45349   0.34569   0.00000  Uiso   1.00
C23    C     0.00009   0.45349   0.31957   0.00000  Uiso   1.00
C24    C     0.00015   0.43085   0.30588   0.00000  Uiso   1.00
N6     N     0.00017   0.33219   0.36830   0.00000  Uiso   1.00
C25    C     0.00010   0.35230   0.38412   0.00000  Uiso   1.00
N7     N     0.00007   0.37639   0.37684   0.00000  Uiso   1.00
C26    C     0.00008   0.34501   0.40897   0.00000  Uiso   1.00
C27    C     0.00014   0.31936   0.40896   0.00000  Uiso   1.00
C28    C     0.00019   0.31208   0.38412   0.00000  Uiso   1.00
C29    C     0.00014   0.30543   0.43129   0.00000  Uiso   1.00
C30    C     0.00008   0.31912   0.45393   0.00000  Uiso   1.00
C31    C     0.00002   0.34524   0.45393   0.00000  Uiso   1.00
C32    C     0.00002   0.35893   0.43129   0.00000  Uiso   1.00
N8     N     0.00024   0.28798   0.37683   0.00000  Uiso   1.00
H1     H     0.00031   0.23391   0.37975   0.00000  Uiso   1.00
O1     O     0.00036   0.18788   0.35888   0.00000  Uiso   1.00
O2     O     0.00039   0.18789   0.30635   0.00000  Uiso   1.00
H2     H     0.00038   0.23393   0.28550   0.00000  Uiso   1.00
H3     H     0.00042   0.28506   0.23437   0.00000  Uiso   1.00
O3     O     0.00045   0.30591   0.18833   0.00000  Uiso   1.00
O4     O     0.00042   0.35845   0.18832   0.00000  Uiso   1.00
H4     H     0.00036   0.37931   0.23435   0.00000  Uiso   1.00
H5     H    -0.00002   0.43075   0.37974   0.00000  Uiso   1.00
O5     O    -0.00002   0.47684   0.35706   0.00000  Uiso   1.00
O6     O     0.00009   0.47684   0.30820   0.00000  Uiso   1.00
H6     H     0.00020   0.43075   0.28551   0.00000  Uiso   1.00
H7     H     0.00018   0.28506   0.43119   0.00000  Uiso   1.00
O7     O     0.00008   0.30774   0.47728   0.00000  Uiso   1.00
O8     O    -0.00003   0.35661   0.47728   0.00000  Uiso   1.00
H8     H    -0.00002   0.37929   0.43119   0.00000  Uiso   1.00
Ni1    Ni    0.00023   0.33219   0.33264   0.00000  Uiso   1.00
C33    C     0.64211   0.00056   0.23408   0.00000  Uiso   1.00
C34    C     0.65545   0.00061   0.21124   0.00000  Uiso   1.00
C35    C     0.68229   0.00064   0.21124   0.00000  Uiso   1.00
C36    C     0.69563   0.00063   0.23410   0.00000  Uiso   1.00
C37    C     0.68166   0.00058   0.25633   0.00000  Uiso   1.00
C38    C     0.65606   0.00055   0.25633   0.00000  Uiso   1.00
C39    C     0.64876   0.00047   0.28118   0.00000  Uiso   1.00
N9     N     0.66886   0.00046   0.29701   0.00000  Uiso   1.00
C40    C     0.68895   0.00053   0.28118   0.00000  Uiso   1.00
N10    N     0.71305   0.00056   0.28847   0.00000  Uiso   1.00
C41    C     0.72034   0.00053   0.31257   0.00000  Uiso   1.00
N11    N     0.70451   0.00047   0.33267   0.00000  Uiso   1.00
C42    C     0.72034   0.00048   0.35276   0.00000  Uiso   1.00
C43    C     0.74519   0.00055   0.34546   0.00000  Uiso   1.00
C44    C     0.74518   0.00059   0.31986   0.00000  Uiso   1.00
N12    N     0.66886   0.00024   0.36833   0.00000  Uiso   1.00
C45    C     0.68897   0.00029   0.38415   0.00000  Uiso   1.00
N13    N     0.71306   0.00040   0.37686   0.00000  Uiso   1.00
C46    C     0.68169   0.00018   0.40900   0.00000  Uiso   1.00
C47    C     0.65603   0.00007   0.40900   0.00000  Uiso   1.00
C48    C     0.64875   0.00011   0.38415   0.00000  Uiso   1.00
C49    C     0.76742   0.00064   0.30589   0.00000  Uiso   1.00
C50    C     0.79028   0.00066   0.31923   0.00000  Uiso   1.00
C51    C     0.79028   0.00063   0.34607   0.00000  Uiso   1.00
C52    C     0.76743   0.00057   0.35942   0.00000  Uiso   1.00
C53    C     0.64211  -0.00005   0.43132   0.00000  Uiso   1.00
C54    C     0.65580  -0.00004   0.45396   0.00000  Uiso   1.00
C55    C     0.68192   0.00008   0.45396   0.00000  Uiso   1.00
C56    C     0.69561   0.00019   0.43132   0.00000  Uiso   1.00
N14    N     0.63319   0.00024   0.33266   0.00000  Uiso   1.00
C57    C     0.61737   0.00011   0.35277   0.00000  Uiso   1.00
N15    N     0.62465   0.00004   0.37687   0.00000  Uiso   1.00
C58    C     0.59252   0.00006   0.34548   0.00000  Uiso   1.00
C59    C     0.59252   0.00018   0.31983   0.00000  Uiso   1.00
C60    C     0.61737   0.00028   0.31255   0.00000  Uiso   1.00
C61    C     0.57020   0.00018   0.30590   0.00000  Uiso   1.00
C62    C     0.54756   0.00007   0.31959   0.00000  Uiso   1.00
C63    C     0.54756  -0.00005   0.34571   0.00000  Uiso   1.00
C64    C     0.57020  -0.00005   0.35940   0.00000  Uiso   1.00
N16    N     0.62466   0.00039   0.28845   0.00000  Uiso   1.00
H9     H     0.62174   0.00053   0.23438   0.00000  Uiso   1.00
O9     O     0.64261   0.00061   0.18835   0.00000  Uiso   1.00
O10    O     0.69515   0.00068   0.18837   0.00000  Uiso   1.00
H10    H     0.71600   0.00065   0.23440   0.00000  Uiso   1.00
H11    H     0.76712   0.00066   0.28553   0.00000  Uiso   1.00
O11    O     0.81315   0.00069   0.30638   0.00000  Uiso   1.00
O12    O     0.81317   0.00063   0.35891   0.00000  Uiso   1.00
H12    H     0.76714   0.00054   0.37978   0.00000  Uiso   1.00
H13    H     0.62175  -0.00013   0.43122   0.00000  Uiso   1.00
O13    O     0.64443  -0.00013   0.47731   0.00000  Uiso   1.00
O14    O     0.69330   0.00008   0.47731   0.00000  Uiso   1.00
H14    H     0.71598   0.00028   0.43122   0.00000  Uiso   1.00
H15    H     0.57030   0.00028   0.28554   0.00000  Uiso   1.00
O15    O     0.52421   0.00007   0.30822   0.00000  Uiso   1.00
O16    O     0.52420  -0.00014   0.35708   0.00000  Uiso   1.00
H16    H     0.57030  -0.00014   0.37977   0.00000  Uiso   1.00
Ni2    Ni    0.66885   0.00035   0.33267   0.00000  Uiso   1.00
C65    C     0.00036   0.76771   0.35941   0.00000  Uiso   1.00
C66    C     0.00039   0.79056   0.34606   0.00000  Uiso   1.00
C67    C     0.00040   0.79055   0.31922   0.00000  Uiso   1.00
C68    C     0.00039   0.76770   0.30588   0.00000  Uiso   1.00
C69    C     0.00036   0.74546   0.31985   0.00000  Uiso   1.00
C70    C     0.00035   0.74546   0.34545   0.00000  Uiso   1.00
C71    C     0.00031   0.72062   0.35275   0.00000  Uiso   1.00
N17    N     0.00030   0.70479   0.33265   0.00000  Uiso   1.00
C72    C     0.00034   0.72061   0.31256   0.00000  Uiso   1.00
N18    N     0.00034   0.71333   0.28846   0.00000  Uiso   1.00
C73    C     0.00033   0.68923   0.28117   0.00000  Uiso   1.00
N19    N     0.00030   0.66913   0.29699   0.00000  Uiso   1.00
C74    C     0.00030   0.64904   0.28116   0.00000  Uiso   1.00
C75    C     0.00033   0.65635   0.25632   0.00000  Uiso   1.00
C76    C     0.00035   0.68194   0.25632   0.00000  Uiso   1.00
N20    N     0.00019   0.63346   0.33265   0.00000  Uiso   1.00
C77    C     0.00021   0.61765   0.31253   0.00000  Uiso   1.00
N21    N     0.00026   0.62494   0.28844   0.00000  Uiso   1.00
C78    C     0.00015   0.59280   0.31982   0.00000  Uiso   1.00
C79    C     0.00009   0.59280   0.34547   0.00000  Uiso   1.00
C80    C     0.00011   0.61764   0.35276   0.00000  Uiso   1.00
C81    C     0.00037   0.69591   0.23409   0.00000  Uiso   1.00
C82    C     0.00037   0.68258   0.21123   0.00000  Uiso   1.00
C83    C     0.00036   0.65574   0.21122   0.00000  Uiso   1.00
C84    C     0.00034   0.64239   0.23407   0.00000  Uiso   1.00
C85    C     0.00002   0.57047   0.35939   0.00000  Uiso   1.00
C86    C     0.00003   0.54783   0.34570   0.00000  Uiso   1.00
C87    C     0.00009   0.54783   0.31958   0.00000  Uiso   1.00
C88    C     0.00015   0.57048   0.30589   0.00000  Uiso   1.00
N22    N     0.00019   0.66913   0.36832   0.00000  Uiso   1.00
C89    C     0.00012   0.64902   0.38414   0.00000  Uiso   1.00
N23    N     0.00008   0.62492   0.37685   0.00000  Uiso   1.00
C90    C     0.00010   0.65631   0.40898   0.00000  Uiso   1.00
C91    C     0.00016   0.68196   0.40898   0.00000  Uiso   1.00
C92    C     0.00022   0.68924   0.38414   0.00000  Uiso   1.00
C93    C     0.00016   0.69588   0.43131   0.00000  Uiso   1.00
C94    C     0.00010   0.68219   0.45395   0.00000  Uiso   1.00
C95    C     0.00004   0.65607   0.45395   0.00000  Uiso   1.00
C96    C     0.00003   0.64238   0.43131   0.00000  Uiso   1.00
N24    N     0.00027   0.71334   0.37685   0.00000  Uiso   1.00
H17    H     0.00035   0.76741   0.37977   0.00000  Uiso   1.00
O17    O     0.00039   0.81344   0.35890   0.00000  Uiso   1.00
O18    O     0.00041   0.81343   0.30637   0.00000  Uiso   1.00
H18    H     0.00039   0.76740   0.28552   0.00000  Uiso   1.00
H19    H     0.00038   0.71628   0.23439   0.00000  Uiso   1.00
O19    O     0.00038   0.69543   0.18836   0.00000  Uiso   1.00
O20    O     0.00035   0.64290   0.18834   0.00000  Uiso   1.00
H20    H     0.00032   0.62202   0.23437   0.00000  Uiso   1.00
H21    H    -0.00002   0.57057   0.37975   0.00000  Uiso   1.00
O21    O    -0.00003   0.52448   0.35707   0.00000  Uiso   1.00
O22    O     0.00009   0.52448   0.30820   0.00000  Uiso   1.00
H22    H     0.00020   0.57058   0.28552   0.00000  Uiso   1.00
H23    H     0.00021   0.71625   0.43121   0.00000  Uiso   1.00
O23    O     0.00009   0.69356   0.47730   0.00000  Uiso   1.00
O24    O    -0.00002   0.64470   0.47730   0.00000  Uiso   1.00
H24    H    -0.00001   0.62202   0.43121   0.00000  Uiso   1.00
Ni3    Ni    0.00025   0.66913   0.33265   0.00000  Uiso   1.00
C97    C     0.35867   0.00064   0.23408   0.00000  Uiso   1.00
C98    C     0.34532   0.00070   0.21123   0.00000  Uiso   1.00
C99    C     0.31849   0.00073   0.21124   0.00000  Uiso   1.00
C100   C     0.30515   0.00071   0.23409   0.00000  Uiso   1.00
C101   C     0.31911   0.00065   0.25633   0.00000  Uiso   1.00
C102   C     0.34471   0.00062   0.25632   0.00000  Uiso   1.00
C103   C     0.35201   0.00054   0.28117   0.00000  Uiso   1.00
N25    N     0.33192   0.00052   0.29700   0.00000  Uiso   1.00
C104   C     0.31182   0.00060   0.28118   0.00000  Uiso   1.00
N26    N     0.28772   0.00062   0.28846   0.00000  Uiso   1.00
C105   C     0.28044   0.00058   0.31256   0.00000  Uiso   1.00
N27    N     0.29626   0.00051   0.33266   0.00000  Uiso   1.00
C106   C     0.28043   0.00051   0.35275   0.00000  Uiso   1.00
C107   C     0.25558   0.00058   0.34545   0.00000  Uiso   1.00
C108   C     0.25559   0.00062   0.31985   0.00000  Uiso   1.00
N28    N     0.33192   0.00029   0.36833   0.00000  Uiso   1.00
C109   C     0.31180   0.00033   0.38414   0.00000  Uiso   1.00
N29    N     0.28771   0.00043   0.37685   0.00000  Uiso   1.00
C110   C     0.31909   0.00022   0.40899   0.00000  Uiso   1.00
C111   C     0.34474   0.00011   0.40899   0.00000  Uiso   1.00
C112   C     0.35203   0.00016   0.38415   0.00000  Uiso   1.00
C113   C     0.23335   0.00067   0.30589   0.00000  Uiso   1.00
C114   C     0.21050   0.00068   0.31922   0.00000  Uiso   1.00
C115   C     0.21049   0.00064   0.34606   0.00000  Uiso   1.00
C116   C     0.23334   0.00059   0.35941   0.00000  Uiso   1.00
C117   C     0.35866  -0.00001   0.43132   0.00000  Uiso   1.00
C118   C     0.34497  -0.00001   0.45396   0.00000  Uiso   1.00
C119   C     0.31885   0.00010   0.45396   0.00000  Uiso   1.00
C120   C     0.30516   0.00022   0.43131   0.00000  Uiso   1.00
N30    N     0.36759   0.00030   0.33266   0.00000  Uiso   1.00
C121   C     0.38340   0.00016   0.35277   0.00000  Uiso   1.00
N31    N     0.37612   0.00009   0.37686   0.00000  Uiso   1.00
C122   C     0.40825   0.00011   0.34548   0.00000  Uiso   1.00
C123   C     0.40825   0.00023   0.31983   0.00000  Uiso   1.00
C124   C     0.38340   0.00034   0.31255   0.00000  Uiso   1.00
C125   C     0.43057   0.00023   0.30590   0.00000  Uiso   1.00
C126   C     0.45321   0.00010   0.31959   0.00000  Uiso   1.00
C127   C     0.45322  -0.00001   0.34571   0.00000  Uiso   1.00
C128   C     0.43058  -0.00001   0.35940   0.00000  Uiso   1.00
N32    N     0.37611   0.00045   0.28845   0.00000  Uiso   1.00
H25    H     0.37904   0.00061   0.23438   0.00000  Uiso   1.00
O25    O     0.35817   0.00071   0.18835   0.00000  Uiso   1.00
O26    O     0.30563   0.00076   0.18836   0.00000  Uiso   1.00
H26    H     0.28478   0.00073   0.23439   0.00000  Uiso   1.00
H27    H     0.23365   0.00069   0.28552   0.00000  Uiso   1.00
O27    O     0.18762   0.00071   0.30637   0.00000  Uiso   1.00
O28    O     0.18761   0.00065   0.35890   0.00000  Uiso   1.00
H28    H     0.23364   0.00055   0.37978   0.00000  Uiso   1.00
H29    H     0.37902  -0.00009   0.43122   0.00000  Uiso   1.00
O29    O     0.35634  -0.00011   0.47731   0.00000  Uiso   1.00
O30    O     0.30748   0.00010   0.47731   0.00000  Uiso   1.00
H30    H     0.28479   0.00031   0.43121   0.00000  Uiso   1.00
H31    H     0.43047   0.00032   0.28554   0.00000  Uiso   1.00
O31    O     0.47657   0.00009   0.30822   0.00000  Uiso   1.00
O32    O     0.47657  -0.00013   0.35708   0.00000  Uiso   1.00
H32    H     0.43048  -0.00010   0.37977   0.00000  Uiso   1.00
Ni4    Ni    0.33192   0.00040   0.33266   0.00000  Uiso   1.00
C129   C     0.00036   0.64235   0.76817   0.00000  Uiso   1.00
C130   C     0.00039   0.65570   0.79102   0.00000  Uiso   1.00
C131   C     0.00041   0.68254   0.79101   0.00000  Uiso   1.00
C132   C     0.00040   0.69588   0.76816   0.00000  Uiso   1.00
C133   C     0.00037   0.68191   0.74592   0.00000  Uiso   1.00
C134   C     0.00034   0.65631   0.74593   0.00000  Uiso   1.00
C135   C     0.00030   0.64901   0.72108   0.00000  Uiso   1.00
N33    N     0.00030   0.66911   0.70525   0.00000  Uiso   1.00
C136   C     0.00034   0.68921   0.72107   0.00000  Uiso   1.00
N34    N     0.00035   0.71330   0.71379   0.00000  Uiso   1.00
C137   C     0.00033   0.72059   0.68969   0.00000  Uiso   1.00
N35    N     0.00029   0.70477   0.66959   0.00000  Uiso   1.00
C138   C     0.00029   0.72060   0.64950   0.00000  Uiso   1.00
C139   C     0.00033   0.74545   0.65680   0.00000  Uiso   1.00
C140   C     0.00035   0.74544   0.68240   0.00000  Uiso   1.00
N36    N     0.00018   0.66912   0.63392   0.00000  Uiso   1.00
C141   C     0.00020   0.68923   0.61811   0.00000  Uiso   1.00
N37    N     0.00025   0.71332   0.62540   0.00000  Uiso   1.00
C142   C     0.00014   0.68195   0.59326   0.00000  Uiso   1.00
C143   C     0.00009   0.65630   0.59326   0.00000  Uiso   1.00
C144   C     0.00011   0.64901   0.61810   0.00000  Uiso   1.00
C145   C     0.00038   0.76768   0.69637   0.00000  Uiso   1.00
C146   C     0.00038   0.79053   0.68303   0.00000  Uiso   1.00
C147   C     0.00037   0.79054   0.65619   0.00000  Uiso   1.00
C148   C     0.00034   0.76769   0.64284   0.00000  Uiso   1.00
C149   C     0.00003   0.64238   0.57093   0.00000  Uiso   1.00
C150   C     0.00002   0.65607   0.54829   0.00000  Uiso   1.00
C151   C     0.00008   0.68219   0.54829   0.00000  Uiso   1.00
C152   C     0.00014   0.69588   0.57093   0.00000  Uiso   1.00
N38    N     0.00019   0.63344   0.66959   0.00000  Uiso   1.00
C153   C     0.00012   0.61762   0.64948   0.00000  Uiso   1.00
N39    N     0.00009   0.62491   0.62539   0.00000  Uiso   1.00
C154   C     0.00010   0.59278   0.65677   0.00000  Uiso   1.00
C155   C     0.00015   0.59278   0.68242   0.00000  Uiso   1.00
C156   C     0.00020   0.61763   0.68970   0.00000  Uiso   1.00
C157   C     0.00015   0.57045   0.69634   0.00000  Uiso   1.00
C158   C     0.00009   0.54781   0.68265   0.00000  Uiso   1.00
C159   C     0.00004   0.54781   0.65653   0.00000  Uiso   1.00
C160   C     0.00004   0.57045   0.64284   0.00000  Uiso   1.00
N40    N     0.00026   0.62491   0.71380   0.00000  Uiso   1.00
H33    H     0.00034   0.62199   0.76787   0.00000  Uiso   1.00
O33    O     0.00040   0.64286   0.81390   0.00000  Uiso   1.00
O34    O     0.00043   0.69539   0.81389   0.00000  Uiso   1.00
H34    H     0.00042   0.71624   0.76785   0.00000  Uiso   1.00
H35    H     0.00040   0.76737   0.71673   0.00000  Uiso   1.00
O35    O     0.00040   0.81341   0.69589   0.00000  Uiso   1.00
O36    O     0.00037   0.81343   0.64335   0.00000  Uiso   1.00
H36    H     0.00032   0.76740   0.62248   0.00000  Uiso   1.00
H37    H    -0.00002   0.62201   0.57103   0.00000  Uiso   1.00
O37    O    -0.00003   0.64470   0.52494   0.00000  Uiso   1.00
O38    O     0.00008   0.69356   0.52494   0.00000  Uiso   1.00
H38    H     0.00019   0.71624   0.57104   0.00000  Uiso   1.00
H39    H     0.00019   0.57055   0.71671   0.00000  Uiso   1.00
O39    O     0.00009   0.52446   0.69402   0.00000  Uiso   1.00
O40    O    -0.00001   0.52446   0.64516   0.00000  Uiso   1.00
H40    H    -0.00000   0.57056   0.62248   0.00000  Uiso   1.00
Ni5    Ni    0.00024   0.66911   0.66959   0.00000  Uiso   1.00
C161   C     0.35867   0.00048   0.76818   0.00000  Uiso   1.00
C162   C     0.34532   0.00052   0.79102   0.00000  Uiso   1.00
C163   C     0.31848   0.00055   0.79102   0.00000  Uiso   1.00
C164   C     0.30514   0.00054   0.76816   0.00000  Uiso   1.00
C165   C     0.31911   0.00050   0.74593   0.00000  Uiso   1.00
C166   C     0.34471   0.00047   0.74593   0.00000  Uiso   1.00
C167   C     0.35201   0.00042   0.72108   0.00000  Uiso   1.00
N41    N     0.33192   0.00041   0.70526   0.00000  Uiso   1.00
C168   C     0.31182   0.00047   0.72108   0.00000  Uiso   1.00
N42    N     0.28772   0.00050   0.71379   0.00000  Uiso   1.00
C169   C     0.28044   0.00049   0.68969   0.00000  Uiso   1.00
N43    N     0.29626   0.00043   0.66959   0.00000  Uiso   1.00
C170   C     0.28043   0.00046   0.64950   0.00000  Uiso   1.00
C171   C     0.25558   0.00053   0.65680   0.00000  Uiso   1.00
C172   C     0.25559   0.00055   0.68240   0.00000  Uiso   1.00
N44    N     0.33192   0.00023   0.63393   0.00000  Uiso   1.00
C173   C     0.31180   0.00028   0.61811   0.00000  Uiso   1.00
N45    N     0.28771   0.00039   0.62540   0.00000  Uiso   1.00
C174   C     0.31909   0.00018   0.59327   0.00000  Uiso   1.00
C175   C     0.34474   0.00007   0.59326   0.00000  Uiso   1.00
C176   C     0.35203   0.00010   0.61811   0.00000  Uiso   1.00
C177   C     0.23335   0.00060   0.69636   0.00000  Uiso   1.00
C178   C     0.21050   0.00063   0.68303   0.00000  Uiso   1.00
C179   C     0.21049   0.00061   0.65619   0.00000  Uiso   1.00
C180   C     0.23334   0.00056   0.64284   0.00000  Uiso   1.00
C181   C     0.35866  -0.00004   0.57094   0.00000  Uiso   1.00
C182   C     0.34497  -0.00003   0.54830   0.00000  Uiso   1.00
C183   C     0.31885   0.00008   0.54830   0.00000  Uiso   1.00
C184   C     0.30516   0.00019   0.57094   0.00000  Uiso   1.00
N46    N     0.36759   0.00022   0.66960   0.00000  Uiso   1.00
C185   C     0.38341   0.00010   0.64949   0.00000  Uiso   1.00
N47    N     0.37612   0.00004   0.62540   0.00000  Uiso   1.00
C186   C     0.40825   0.00006   0.65678   0.00000  Uiso   1.00
C187   C     0.40825   0.00016   0.68243   0.00000  Uiso   1.00
C188   C     0.38340   0.00025   0.68971   0.00000  Uiso   1.00
C189   C     0.43057   0.00016   0.69636   0.00000  Uiso   1.00
C190   C     0.45321   0.00006   0.68267   0.00000  Uiso   1.00
C191   C     0.45322  -0.00005   0.65655   0.00000  Uiso   1.00
C192   C     0.43058  -0.00005   0.64286   0.00000  Uiso   1.00
N48    N     0.37611   0.00035   0.71381   0.00000  Uiso   1.00
H41    H     0.37903   0.00046   0.76788   0.00000  Uiso   1.00
O41    O     0.35816   0.00052   0.81391   0.00000  Uiso   1.00
O42    O     0.30562   0.00057   0.81389   0.00000  Uiso   1.00
H42    H     0.28478   0.00056   0.76786   0.00000  Uiso   1.00
H43    H     0.23365   0.00061   0.71673   0.00000  Uiso   1.00
O43    O     0.18762   0.00066   0.69588   0.00000  Uiso   1.00
O44    O     0.18761   0.00062   0.64334   0.00000  Uiso   1.00
H44    H     0.23364   0.00054   0.62247   0.00000  Uiso   1.00
H45    H     0.37903  -0.00013   0.57104   0.00000  Uiso   1.00
O45    O     0.35634  -0.00012   0.52495   0.00000  Uiso   1.00
O46    O     0.30748   0.00009   0.52495   0.00000  Uiso   1.00
H46    H     0.28480   0.00028   0.57104   0.00000  Uiso   1.00
H47    H     0.43047   0.00025   0.71672   0.00000  Uiso   1.00
O47    O     0.47657   0.00006   0.69404   0.00000  Uiso   1.00
O48    O     0.47657  -0.00014   0.64518   0.00000  Uiso   1.00
H48    H     0.43048  -0.00013   0.62249   0.00000  Uiso   1.00
Ni6    Ni    0.33192   0.00033   0.66959   0.00000  Uiso   1.00
C193   C     0.00032   0.35892   0.76815   0.00000  Uiso   1.00
C194   C     0.00034   0.34558   0.79100   0.00000  Uiso   1.00
C195   C     0.00036   0.31874   0.79099   0.00000  Uiso   1.00
C196   C     0.00036   0.30540   0.76814   0.00000  Uiso   1.00
C197   C     0.00034   0.31937   0.74590   0.00000  Uiso   1.00
C198   C     0.00032   0.34496   0.74591   0.00000  Uiso   1.00
C199   C     0.00030   0.35227   0.72106   0.00000  Uiso   1.00
N49    N     0.00030   0.33217   0.70523   0.00000  Uiso   1.00
C200   C     0.00033   0.31207   0.72105   0.00000  Uiso   1.00
N50    N     0.00035   0.28798   0.71377   0.00000  Uiso   1.00
C201   C     0.00034   0.28069   0.68967   0.00000  Uiso   1.00
N51    N     0.00031   0.29651   0.66957   0.00000  Uiso   1.00
C202   C     0.00032   0.28069   0.64948   0.00000  Uiso   1.00
C203   C     0.00036   0.25584   0.65678   0.00000  Uiso   1.00
C204   C     0.00037   0.25584   0.68238   0.00000  Uiso   1.00
N52    N     0.00020   0.33218   0.63390   0.00000  Uiso   1.00
C205   C     0.00022   0.31206   0.61809   0.00000  Uiso   1.00
N53    N     0.00028   0.28797   0.62538   0.00000  Uiso   1.00
C206   C     0.00017   0.31935   0.59324   0.00000  Uiso   1.00
C207   C     0.00011   0.34500   0.59324   0.00000  Uiso   1.00
C208   C     0.00013   0.35229   0.61808   0.00000  Uiso   1.00
C209   C     0.00039   0.23360   0.69634   0.00000  Uiso   1.00
C210   C     0.00040   0.21075   0.68300   0.00000  Uiso   1.00
C211   C     0.00039   0.21075   0.65617   0.00000  Uiso   1.00
C212   C     0.00036   0.23360   0.64282   0.00000  Uiso   1.00
C213   C     0.00004   0.35892   0.57091   0.00000  Uiso   1.00
C214   C     0.00004   0.34523   0.54827   0.00000  Uiso   1.00
C215   C     0.00010   0.31911   0.54827   0.00000  Uiso   1.00
C216   C     0.00016   0.30542   0.57092   0.00000  Uiso   1.00
N54    N     0.00019   0.36784   0.66957   0.00000  Uiso   1.00
C217   C     0.00013   0.38366   0.64946   0.00000  Uiso   1.00
N55    N     0.00009   0.37638   0.62537   0.00000  Uiso   1.00
C218   C     0.00010   0.40851   0.65675   0.00000  Uiso   1.00
C219   C     0.00015   0.40850   0.68241   0.00000  Uiso   1.00
C220   C     0.00021   0.38366   0.68969   0.00000  Uiso   1.00
C221   C     0.00015   0.43083   0.69633   0.00000  Uiso   1.00
C222   C     0.00009   0.45347   0.68264   0.00000  Uiso   1.00
C223   C     0.00003   0.45347   0.65653   0.00000  Uiso   1.00
C224   C     0.00004   0.43083   0.64283   0.00000  Uiso   1.00
N56    N     0.00026   0.37636   0.71378   0.00000  Uiso   1.00
H49    H     0.00031   0.37929   0.76785   0.00000  Uiso   1.00
O49    O     0.00033   0.35842   0.81388   0.00000  Uiso   1.00
O50    O     0.00036   0.30589   0.81387   0.00000  Uiso   1.00
H50    H     0.00037   0.28503   0.76784   0.00000  Uiso   1.00
H51    H     0.00040   0.23391   0.71671   0.00000  Uiso   1.00
O51    O     0.00042   0.18787   0.69586   0.00000  Uiso   1.00
O52    O     0.00039   0.18786   0.64332   0.00000  Uiso   1.00
H52    H     0.00035   0.23389   0.62245   0.00000  Uiso   1.00
H53    H    -0.00000   0.37929   0.57101   0.00000  Uiso   1.00
O53    O    -0.00002   0.35660   0.52492   0.00000  Uiso   1.00
O54    O     0.00009   0.30774   0.52492   0.00000  Uiso   1.00
H54    H     0.00021   0.28506   0.57102   0.00000  Uiso   1.00
H55    H     0.00019   0.43072   0.71670   0.00000  Uiso   1.00
O55    O     0.00008   0.47682   0.69402   0.00000  Uiso   1.00
O56    O    -0.00002   0.47683   0.64515   0.00000  Uiso   1.00
H56    H    -0.00000   0.43074   0.62247   0.00000  Uiso   1.00
Ni7    Ni    0.00025   0.33218   0.66957   0.00000  Uiso   1.00
C225   C     0.64211   0.00057   0.76818   0.00000  Uiso   1.00
C226   C     0.65546   0.00061   0.79103   0.00000  Uiso   1.00
C227   C     0.68230   0.00064   0.79102   0.00000  Uiso   1.00
C228   C     0.69563   0.00062   0.76817   0.00000  Uiso   1.00
C229   C     0.68166   0.00058   0.74593   0.00000  Uiso   1.00
C230   C     0.65607   0.00055   0.74594   0.00000  Uiso   1.00
C231   C     0.64876   0.00048   0.72109   0.00000  Uiso   1.00
N57    N     0.66886   0.00047   0.70526   0.00000  Uiso   1.00
C232   C     0.68896   0.00053   0.72108   0.00000  Uiso   1.00
N58    N     0.71305   0.00056   0.71380   0.00000  Uiso   1.00
C233   C     0.72034   0.00053   0.68970   0.00000  Uiso   1.00
N59    N     0.70451   0.00047   0.66960   0.00000  Uiso   1.00
C234   C     0.72034   0.00049   0.64951   0.00000  Uiso   1.00
C235   C     0.74519   0.00055   0.65681   0.00000  Uiso   1.00
C236   C     0.74519   0.00058   0.68241   0.00000  Uiso   1.00
N60    N     0.66886   0.00027   0.63393   0.00000  Uiso   1.00
C237   C     0.68897   0.00031   0.61812   0.00000  Uiso   1.00
N61    N     0.71306   0.00041   0.62541   0.00000  Uiso   1.00
C238   C     0.68169   0.00022   0.59327   0.00000  Uiso   1.00
C239   C     0.65603   0.00011   0.59327   0.00000  Uiso   1.00
C240   C     0.64875   0.00015   0.61811   0.00000  Uiso   1.00
C241   C     0.76742   0.00063   0.69637   0.00000  Uiso   1.00
C242   C     0.79028   0.00065   0.68304   0.00000  Uiso   1.00
C243   C     0.79028   0.00062   0.65620   0.00000  Uiso   1.00
C244   C     0.76743   0.00057   0.64285   0.00000  Uiso   1.00
C245   C     0.64211  -0.00001   0.57094   0.00000  Uiso   1.00
C246   C     0.65580  -0.00001   0.54830   0.00000  Uiso   1.00
C247   C     0.68192   0.00010   0.54831   0.00000  Uiso   1.00
C248   C     0.69561   0.00022   0.57095   0.00000  Uiso   1.00
N62    N     0.63319   0.00027   0.66960   0.00000  Uiso   1.00
C249   C     0.61737   0.00014   0.64949   0.00000  Uiso   1.00
N63    N     0.62465   0.00008   0.62540   0.00000  Uiso   1.00
C250   C     0.59252   0.00010   0.65678   0.00000  Uiso   1.00
C251   C     0.59252   0.00021   0.68244   0.00000  Uiso   1.00
C252   C     0.61737   0.00030   0.68972   0.00000  Uiso   1.00
C253   C     0.57020   0.00020   0.69636   0.00000  Uiso   1.00
C254   C     0.54756   0.00009   0.68267   0.00000  Uiso   1.00
C255   C     0.54756  -0.00002   0.65655   0.00000  Uiso   1.00
C256   C     0.57020  -0.00002   0.64286   0.00000  Uiso   1.00
N64    N     0.62466   0.00041   0.71381   0.00000  Uiso   1.00
H57    H     0.62174   0.00054   0.76789   0.00000  Uiso   1.00
O57    O     0.64262   0.00062   0.81391   0.00000  Uiso   1.00
O58    O     0.69515   0.00066   0.81390   0.00000  Uiso   1.00
H58    H     0.71600   0.00064   0.76786   0.00000  Uiso   1.00
H59    H     0.76712   0.00065   0.71674   0.00000  Uiso   1.00
O59    O     0.81316   0.00068   0.69589   0.00000  Uiso   1.00
O60    O     0.81317   0.00063   0.64336   0.00000  Uiso   1.00
H60    H     0.76714   0.00054   0.62248   0.00000  Uiso   1.00
H61    H     0.62175  -0.00009   0.57104   0.00000  Uiso   1.00
O61    O     0.64443  -0.00011   0.52495   0.00000  Uiso   1.00
O62    O     0.69330   0.00010   0.52495   0.00000  Uiso   1.00
H62    H     0.71598   0.00031   0.57105   0.00000  Uiso   1.00
H63    H     0.57030   0.00028   0.71673   0.00000  Uiso   1.00
O63    O     0.52421   0.00008   0.69405   0.00000  Uiso   1.00
O64    O     0.52421  -0.00012   0.64518   0.00000  Uiso   1.00
H64    H     0.57030  -0.00010   0.62250   0.00000  Uiso   1.00
Ni8    Ni    0.66885   0.00037   0.66960   0.00000  Uiso   1.00
C257   C     0.35866   0.23359   0.00096   0.00000  Uiso   1.00
C258   C     0.34532   0.21074   0.00098   0.00000  Uiso   1.00
C259   C     0.31848   0.21074   0.00100   0.00000  Uiso   1.00
C260   C     0.30514   0.23360   0.00098   0.00000  Uiso   1.00
C261   C     0.31911   0.25584   0.00096   0.00000  Uiso   1.00
C262   C     0.34470   0.25583   0.00095   0.00000  Uiso   1.00
C263   C     0.35201   0.28068   0.00092   0.00000  Uiso   1.00
N65    N     0.33192   0.29651   0.00092   0.00000  Uiso   1.00
C264   C     0.31182   0.28069   0.00094   0.00000  Uiso   1.00
N66    N     0.28772   0.28797   0.00096   0.00000  Uiso   1.00
C265   C     0.28044   0.31207   0.00096   0.00000  Uiso   1.00
N67    N     0.29626   0.33217   0.00094   0.00000  Uiso   1.00
C266   C     0.28043   0.35226   0.00095   0.00000  Uiso   1.00
C267   C     0.25558   0.34496   0.00098   0.00000  Uiso   1.00
C268   C     0.25559   0.31937   0.00098   0.00000  Uiso   1.00
N68    N     0.33192   0.36783   0.00088   0.00000  Uiso   1.00
C269   C     0.31181   0.38365   0.00090   0.00000  Uiso   1.00
N69    N     0.28771   0.37636   0.00093   0.00000  Uiso   1.00
C270   C     0.31909   0.40850   0.00087   0.00000  Uiso   1.00
C271   C     0.34474   0.40850   0.00084   0.00000  Uiso   1.00
C272   C     0.35203   0.38365   0.00084   0.00000  Uiso   1.00
C273   C     0.23335   0.30540   0.00100   0.00000  Uiso   1.00
C274   C     0.21049   0.31874   0.00102   0.00000  Uiso   1.00
C275   C     0.21049   0.34558   0.00102   0.00000  Uiso   1.00
C276   C     0.23334   0.35893   0.00100   0.00000  Uiso   1.00
C277   C     0.35866   0.43082   0.00081   0.00000  Uiso   1.00
C278   C     0.34497   0.45346   0.00083   0.00000  Uiso   1.00
C279   C     0.31885   0.45346   0.00087   0.00000  Uiso   1.00
C280   C     0.30516   0.43082   0.00089   0.00000  Uiso   1.00
N70    N     0.36759   0.33216   0.00086   0.00000  Uiso   1.00
C281   C     0.38341   0.35227   0.00082   0.00000  Uiso   1.00
N71    N     0.37612   0.37637   0.00081   0.00000  Uiso   1.00
C282   C     0.40825   0.34498   0.00080   0.00000  Uiso   1.00
C283   C     0.40825   0.31933   0.00083   0.00000  Uiso   1.00
C284   C     0.38340   0.31205   0.00086   0.00000  Uiso   1.00
C285   C     0.43057   0.30540   0.00082   0.00000  Uiso   1.00
C286   C     0.45321   0.31909   0.00078   0.00000  Uiso   1.00
C287   C     0.45322   0.34521   0.00076   0.00000  Uiso   1.00
C288   C     0.43058   0.35890   0.00076   0.00000  Uiso   1.00
N72    N     0.37611   0.28796   0.00089   0.00000  Uiso   1.00
H65    H     0.37903   0.23388   0.00095   0.00000  Uiso   1.00
O65    O     0.35816   0.18785   0.00100   0.00000  Uiso   1.00
O66    O     0.30563   0.18787   0.00102   0.00000  Uiso   1.00
H66    H     0.28477   0.23390   0.00099   0.00000  Uiso   1.00
H67    H     0.23365   0.28503   0.00101   0.00000  Uiso   1.00
O67    O     0.18761   0.30589   0.00104   0.00000  Uiso   1.00
O68    O     0.18761   0.35843   0.00103   0.00000  Uiso   1.00
H68    H     0.23364   0.37929   0.00099   0.00000  Uiso   1.00
H69    H     0.37903   0.43072   0.00079   0.00000  Uiso   1.00
O69    O     0.35634   0.47682   0.00082   0.00000  Uiso   1.00
O70    O     0.30748   0.47681   0.00088   0.00000  Uiso   1.00
H70    H     0.28480   0.43072   0.00092   0.00000  Uiso   1.00
H71    H     0.43047   0.28504   0.00084   0.00000  Uiso   1.00
O71    O     0.47657   0.30772   0.00078   0.00000  Uiso   1.00
O72    O     0.47657   0.35658   0.00073   0.00000  Uiso   1.00
H72    H     0.43048   0.37927   0.00074   0.00000  Uiso   1.00
Ni9    Ni    0.33192   0.33217   0.00090   0.00000  Uiso   1.00
C289   C     0.35867   0.76768   0.00125   0.00000  Uiso   1.00
C290   C     0.34532   0.79053   0.00125   0.00000  Uiso   1.00
C291   C     0.31848   0.79052   0.00125   0.00000  Uiso   1.00
C292   C     0.30514   0.76767   0.00125   0.00000  Uiso   1.00
C293   C     0.31911   0.74543   0.00124   0.00000  Uiso   1.00
C294   C     0.34471   0.74544   0.00124   0.00000  Uiso   1.00
C295   C     0.35201   0.72059   0.00122   0.00000  Uiso   1.00
N73    N     0.33192   0.70476   0.00121   0.00000  Uiso   1.00
C296   C     0.31182   0.72058   0.00122   0.00000  Uiso   1.00
N74    N     0.28772   0.71330   0.00122   0.00000  Uiso   1.00
C297   C     0.28044   0.68920   0.00120   0.00000  Uiso   1.00
N75    N     0.29626   0.66910   0.00118   0.00000  Uiso   1.00
C298   C     0.28043   0.64901   0.00117   0.00000  Uiso   1.00
C299   C     0.25558   0.65631   0.00118   0.00000  Uiso   1.00
C300   C     0.25559   0.68191   0.00120   0.00000  Uiso   1.00
N76    N     0.33192   0.63343   0.00111   0.00000  Uiso   1.00
C301   C     0.31180   0.61762   0.00110   0.00000  Uiso   1.00
N77    N     0.28771   0.62491   0.00113   0.00000  Uiso   1.00
C302   C     0.31909   0.59277   0.00105   0.00000  Uiso   1.00
C303   C     0.34474   0.59277   0.00103   0.00000  Uiso   1.00
C304   C     0.35203   0.61762   0.00107   0.00000  Uiso   1.00
C305   C     0.23335   0.69588   0.00121   0.00000  Uiso   1.00
C306   C     0.21050   0.68254   0.00119   0.00000  Uiso   1.00
C307   C     0.21049   0.65570   0.00117   0.00000  Uiso   1.00
C308   C     0.23334   0.64235   0.00117   0.00000  Uiso   1.00
C309   C     0.35866   0.57044   0.00097   0.00000  Uiso   1.00
C310   C     0.34497   0.54781   0.00094   0.00000  Uiso   1.00
C311   C     0.31885   0.54781   0.00097   0.00000  Uiso   1.00
C312   C     0.30516   0.57045   0.00103   0.00000  Uiso   1.00
N78    N     0.36758   0.66910   0.00115   0.00000  Uiso   1.00
C313   C     0.38340   0.64900   0.00111   0.00000  Uiso   1.00
N79    N     0.37612   0.62490   0.00107   0.00000  Uiso   1.00
C314   C     0.40825   0.65628   0.00111   0.00000  Uiso   1.00
C315   C     0.40825   0.68194   0.00116   0.00000  Uiso   1.00
C316   C     0.38340   0.68922   0.00118   0.00000  Uiso   1.00
C317   C     0.43057   0.69586   0.00118   0.00000  Uiso   1.00
C318   C     0.45321   0.68217   0.00114   0.00000  Uiso   1.00
C319   C     0.45321   0.65605   0.00110   0.00000  Uiso   1.00
C320   C     0.43058   0.64236   0.00108   0.00000  Uiso   1.00
N80    N     0.37611   0.71331   0.00121   0.00000  Uiso   1.00
H73    H     0.37903   0.76739   0.00125   0.00000  Uiso   1.00
O73    O     0.35816   0.81342   0.00125   0.00000  Uiso   1.00
O74    O     0.30563   0.81340   0.00125   0.00000  Uiso   1.00
H74    H     0.28478   0.76737   0.00124   0.00000  Uiso   1.00
H75    H     0.23365   0.71624   0.00122   0.00000  Uiso   1.00
O75    O     0.18762   0.69539   0.00119   0.00000  Uiso   1.00
O76    O     0.18760   0.64286   0.00116   0.00000  Uiso   1.00
H76    H     0.23363   0.62199   0.00115   0.00000  Uiso   1.00
H77    H     0.37903   0.57054   0.00095   0.00000  Uiso   1.00
O77    O     0.35634   0.52445   0.00088   0.00000  Uiso   1.00
O78    O     0.30748   0.52445   0.00094   0.00000  Uiso   1.00
H78    H     0.28479   0.57055   0.00104   0.00000  Uiso   1.00
H79    H     0.43047   0.71623   0.00121   0.00000  Uiso   1.00
O79    O     0.47657   0.69355   0.00115   0.00000  Uiso   1.00
O80    O     0.47657   0.64468   0.00107   0.00000  Uiso   1.00
H80    H     0.43048   0.62200   0.00104   0.00000  Uiso   1.00
Ni10   Ni    0.33192   0.66910   0.00116   0.00000  Uiso   1.00
C321   C     0.64211   0.23359   0.00107   0.00000  Uiso   1.00
C322   C     0.65546   0.21074   0.00109   0.00000  Uiso   1.00
C323   C     0.68230   0.21075   0.00113   0.00000  Uiso   1.00
C324   C     0.69563   0.23360   0.00114   0.00000  Uiso   1.00
C325   C     0.68166   0.25584   0.00111   0.00000  Uiso   1.00
C326   C     0.65607   0.25583   0.00107   0.00000  Uiso   1.00
C327   C     0.64876   0.28068   0.00104   0.00000  Uiso   1.00
N81    N     0.66886   0.29651   0.00106   0.00000  Uiso   1.00
C328   C     0.68896   0.28069   0.00110   0.00000  Uiso   1.00
N82    N     0.71305   0.28797   0.00112   0.00000  Uiso   1.00
C329   C     0.72034   0.31207   0.00112   0.00000  Uiso   1.00
N83    N     0.70451   0.33217   0.00109   0.00000  Uiso   1.00
C330   C     0.72034   0.35226   0.00110   0.00000  Uiso   1.00
C331   C     0.74519   0.34496   0.00113   0.00000  Uiso   1.00
C332   C     0.74519   0.31936   0.00115   0.00000  Uiso   1.00
N84    N     0.66886   0.36783   0.00101   0.00000  Uiso   1.00
C333   C     0.68897   0.38365   0.00103   0.00000  Uiso   1.00
N85    N     0.71306   0.37636   0.00107   0.00000  Uiso   1.00
C334   C     0.68169   0.40850   0.00100   0.00000  Uiso   1.00
C335   C     0.65603   0.40850   0.00096   0.00000  Uiso   1.00
C336   C     0.64875   0.38365   0.00096   0.00000  Uiso   1.00
C337   C     0.76742   0.30540   0.00117   0.00000  Uiso   1.00
C338   C     0.79028   0.31873   0.00117   0.00000  Uiso   1.00
C339   C     0.79028   0.34557   0.00116   0.00000  Uiso   1.00
C340   C     0.76743   0.35892   0.00114   0.00000  Uiso   1.00
C341   C     0.64211   0.43082   0.00093   0.00000  Uiso   1.00
C342   C     0.65580   0.45346   0.00094   0.00000  Uiso   1.00
C343   C     0.68192   0.45346   0.00098   0.00000  Uiso   1.00
C344   C     0.69561   0.43082   0.00101   0.00000  Uiso   1.00
N86    N     0.63319   0.33216   0.00097   0.00000  Uiso   1.00
C345   C     0.61737   0.35227   0.00092   0.00000  Uiso   1.00
N87    N     0.62465   0.37637   0.00092   0.00000  Uiso   1.00
C346   C     0.59252   0.34498   0.00088   0.00000  Uiso   1.00
C347   C     0.59252   0.31933   0.00091   0.00000  Uiso   1.00
C348   C     0.61737   0.31205   0.00096   0.00000  Uiso   1.00
C349   C     0.57020   0.30540   0.00088   0.00000  Uiso   1.00
C350   C     0.54756   0.31909   0.00083   0.00000  Uiso   1.00
C351   C     0.54756   0.34521   0.00080   0.00000  Uiso   1.00
C352   C     0.57020   0.35891   0.00083   0.00000  Uiso   1.00
N88    N     0.62466   0.28796   0.00100   0.00000  Uiso   1.00
H81    H     0.62174   0.23388   0.00104   0.00000  Uiso   1.00
O81    O     0.64262   0.18785   0.00109   0.00000  Uiso   1.00
O82    O     0.69515   0.18787   0.00115   0.00000  Uiso   1.00
H82    H     0.71600   0.23390   0.00116   0.00000  Uiso   1.00
H83    H     0.76712   0.28503   0.00118   0.00000  Uiso   1.00
O83    O     0.81316   0.30588   0.00118   0.00000  Uiso   1.00
O84    O     0.81317   0.35842   0.00116   0.00000  Uiso   1.00
H84    H     0.76714   0.37929   0.00112   0.00000  Uiso   1.00
H85    H     0.62175   0.43072   0.00090   0.00000  Uiso   1.00
O85    O     0.64443   0.47682   0.00092   0.00000  Uiso   1.00
O86    O     0.69330   0.47681   0.00099   0.00000  Uiso   1.00
H86    H     0.71598   0.43072   0.00104   0.00000  Uiso   1.00
H87    H     0.57030   0.28504   0.00090   0.00000  Uiso   1.00
O87    O     0.52421   0.30772   0.00080   0.00000  Uiso   1.00
O88    O     0.52420   0.35658   0.00076   0.00000  Uiso   1.00
H88    H     0.57029   0.37927   0.00081   0.00000  Uiso   1.00
Ni11   Ni    0.66885   0.33217   0.00103   0.00000  Uiso   1.00
C353   C     0.64210   0.76769   0.00117   0.00000  Uiso   1.00
C354   C     0.65545   0.79053   0.00116   0.00000  Uiso   1.00
C355   C     0.68229   0.79053   0.00114   0.00000  Uiso   1.00
C356   C     0.69563   0.76767   0.00112   0.00000  Uiso   1.00
C357   C     0.68166   0.74543   0.00113   0.00000  Uiso   1.00
C358   C     0.65606   0.74544   0.00115   0.00000  Uiso   1.00
C359   C     0.64876   0.72059   0.00114   0.00000  Uiso   1.00
N89    N     0.66885   0.70476   0.00112   0.00000  Uiso   1.00
C360   C     0.68895   0.72059   0.00111   0.00000  Uiso   1.00
N90    N     0.71305   0.71330   0.00109   0.00000  Uiso   1.00
C361   C     0.72033   0.68920   0.00109   0.00000  Uiso   1.00
N91    N     0.70451   0.66910   0.00109   0.00000  Uiso   1.00
C362   C     0.72034   0.64901   0.00110   0.00000  Uiso   1.00
C363   C     0.74519   0.65632   0.00110   0.00000  Uiso   1.00
C364   C     0.74518   0.68191   0.00109   0.00000  Uiso   1.00
N92    N     0.66886   0.63344   0.00107   0.00000  Uiso   1.00
C365   C     0.68897   0.61762   0.00107   0.00000  Uiso   1.00
N93    N     0.71306   0.62491   0.00109   0.00000  Uiso   1.00
C366   C     0.68169   0.59277   0.00105   0.00000  Uiso   1.00
C367   C     0.65604   0.59277   0.00102   0.00000  Uiso   1.00
C368   C     0.64875   0.61762   0.00103   0.00000  Uiso   1.00
C369   C     0.76742   0.69588   0.00108   0.00000  Uiso   1.00
C370   C     0.79027   0.68255   0.00109   0.00000  Uiso   1.00
C371   C     0.79028   0.65571   0.00109   0.00000  Uiso   1.00
C372   C     0.76744   0.64236   0.00110   0.00000  Uiso   1.00
C373   C     0.64211   0.57045   0.00098   0.00000  Uiso   1.00
C374   C     0.65580   0.54781   0.00098   0.00000  Uiso   1.00
C375   C     0.68192   0.54781   0.00101   0.00000  Uiso   1.00
C376   C     0.69561   0.57045   0.00104   0.00000  Uiso   1.00
N94    N     0.63319   0.66911   0.00109   0.00000  Uiso   1.00
C377   C     0.61737   0.64900   0.00106   0.00000  Uiso   1.00
N95    N     0.62465   0.62490   0.00103   0.00000  Uiso   1.00
C378   C     0.59252   0.65628   0.00107   0.00000  Uiso   1.00
C379   C     0.59252   0.68194   0.00111   0.00000  Uiso   1.00
C380   C     0.61737   0.68922   0.00113   0.00000  Uiso   1.00
C381   C     0.57020   0.69586   0.00114   0.00000  Uiso   1.00
C382   C     0.54756   0.68217   0.00112   0.00000  Uiso   1.00
C383   C     0.54756   0.65605   0.00107   0.00000  Uiso   1.00
C384   C     0.57020   0.64236   0.00105   0.00000  Uiso   1.00
N96    N     0.62466   0.71331   0.00115   0.00000  Uiso   1.00
H89    H     0.62174   0.76739   0.00118   0.00000  Uiso   1.00
O89    O     0.64261   0.81342   0.00117   0.00000  Uiso   1.00
O90    O     0.69515   0.81340   0.00113   0.00000  Uiso   1.00
H90    H     0.71599   0.76737   0.00111   0.00000  Uiso   1.00
H91    H     0.76711   0.71625   0.00108   0.00000  Uiso   1.00
O91    O     0.81315   0.69540   0.00108   0.00000  Uiso   1.00
O92    O     0.81317   0.64287   0.00110   0.00000  Uiso   1.00
H92    H     0.76714   0.62199   0.00110   0.00000  Uiso   1.00
H93    H     0.62175   0.57055   0.00095   0.00000  Uiso   1.00
O93    O     0.64443   0.52445   0.00094   0.00000  Uiso   1.00
O94    O     0.69330   0.52445   0.00100   0.00000  Uiso   1.00
H94    H     0.71598   0.57055   0.00107   0.00000  Uiso   1.00
H95    H     0.57030   0.71623   0.00117   0.00000  Uiso   1.00
O95    O     0.52421   0.69354   0.00114   0.00000  Uiso   1.00
O96    O     0.52420   0.64468   0.00105   0.00000  Uiso   1.00
H96    H     0.57030   0.62200   0.00101   0.00000  Uiso   1.00
Ni12   Ni    0.66885   0.66910   0.00109   0.00000  Uiso   1.00
C385   C     0.97366   0.33215   0.09968   0.00000  Uiso   1.00
C386   C     0.98700   0.33216   0.12253   0.00000  Uiso   1.00
C387   C     0.01384   0.33217   0.12252   0.00000  Uiso   1.00
C388   C     0.02718   0.33217   0.09967   0.00000  Uiso   1.00
C389   C     0.01321   0.33216   0.07743   0.00000  Uiso   1.00
C390   C     0.98761   0.33215   0.07744   0.00000  Uiso   1.00
C391   C     0.98031   0.33214   0.05259   0.00000  Uiso   1.00
N97    N     0.00040   0.33214   0.03676   0.00000  Uiso   1.00
C392   C     0.02050   0.33215   0.05258   0.00000  Uiso   1.00
N98    N     0.04460   0.33215   0.04529   0.00000  Uiso   1.00
C393   C     0.05188   0.33214   0.02119   0.00000  Uiso   1.00
N99    N     0.03605   0.33214   0.00109   0.00000  Uiso   1.00
C394   C     0.05186   0.33214   0.98099   0.00000  Uiso   1.00
C395   C     0.07671   0.33215   0.98828   0.00000  Uiso   1.00
C396   C     0.07672   0.33215   0.01388   0.00000  Uiso   1.00
N100   N     0.00038   0.33213   0.96544   0.00000  Uiso   1.00
C397   C     0.02047   0.33213   0.94962   0.00000  Uiso   1.00
N101   N     0.04457   0.33214   0.95689   0.00000  Uiso   1.00
C398   C     0.01316   0.33214   0.92477   0.00000  Uiso   1.00
C399   C     0.98757   0.33213   0.92478   0.00000  Uiso   1.00
C400   C     0.98027   0.33212   0.94963   0.00000  Uiso   1.00
C401   C     0.09897   0.33215   0.02783   0.00000  Uiso   1.00
C402   C     0.12181   0.33215   0.01448   0.00000  Uiso   1.00
C403   C     0.12180   0.33215   0.98764   0.00000  Uiso   1.00
C404   C     0.09895   0.33215   0.97431   0.00000  Uiso   1.00
C405   C     0.97360   0.33212   0.90254   0.00000  Uiso   1.00
C406   C     0.98694   0.33213   0.87968   0.00000  Uiso   1.00
C407   C     0.01378   0.33215   0.87968   0.00000  Uiso   1.00
C408   C     0.02712   0.33215   0.90253   0.00000  Uiso   1.00
N102   N     0.96473   0.33212   0.00111   0.00000  Uiso   1.00
C409   C     0.94890   0.33212   0.98102   0.00000  Uiso   1.00
N103   N     0.95618   0.33212   0.95692   0.00000  Uiso   1.00
C410   C     0.92405   0.33212   0.98833   0.00000  Uiso   1.00
C411   C     0.92406   0.33212   0.01393   0.00000  Uiso   1.00
C412   C     0.94891   0.33212   0.02122   0.00000  Uiso   1.00
C413   C     0.90183   0.33213   0.02790   0.00000  Uiso   1.00
C414   C     0.87897   0.33214   0.01456   0.00000  Uiso   1.00
C415   C     0.87896   0.33213   0.98772   0.00000  Uiso   1.00
C416   C     0.90181   0.33212   0.97437   0.00000  Uiso   1.00
N104   N     0.95621   0.33213   0.04531   0.00000  Uiso   1.00
H97    H     0.95329   0.33214   0.09939   0.00000  Uiso   1.00
O97    O     0.97416   0.33216   0.14541   0.00000  Uiso   1.00
O98    O     0.02670   0.33219   0.14540   0.00000  Uiso   1.00
H98    H     0.04755   0.33218   0.09936   0.00000  Uiso   1.00
H99    H     0.09868   0.33215   0.04820   0.00000  Uiso   1.00
O99    O     0.14470   0.33216   0.02732   0.00000  Uiso   1.00
O100   O     0.14468   0.33216   0.97479   0.00000  Uiso   1.00
H100   H     0.09864   0.33215   0.95394   0.00000  Uiso   1.00
H101   H     0.95323   0.33211   0.90284   0.00000  Uiso   1.00
O101   O     0.97409   0.33213   0.85680   0.00000  Uiso   1.00
O102   O     0.02662   0.33216   0.85680   0.00000  Uiso   1.00
H102   H     0.04749   0.33216   0.90282   0.00000  Uiso   1.00
H103   H     0.90213   0.33214   0.04826   0.00000  Uiso   1.00
O103   O     0.85609   0.33215   0.02742   0.00000  Uiso   1.00
O104   O     0.85607   0.33213   0.97489   0.00000  Uiso   1.00
H104   H     0.90210   0.33211   0.95401   0.00000  Uiso   1.00
Ni13   Ni    0.00039   0.33213   0.00110   0.00000  Uiso   1.00
C417   C     0.66896   0.97388   0.09971   0.00000  Uiso   1.00
C418   C     0.66893   0.98723   0.12256   0.00000  Uiso   1.00
C419   C     0.66890   0.01406   0.12255   0.00000  Uiso   1.00
C420   C     0.66891   0.02741   0.09970   0.00000  Uiso   1.00
C421   C     0.66894   0.01344   0.07746   0.00000  Uiso   1.00
C422   C     0.66897   0.98784   0.07746   0.00000  Uiso   1.00
C423   C     0.66898   0.98054   0.05262   0.00000  Uiso   1.00
N105   N     0.66897   0.00064   0.03679   0.00000  Uiso   1.00
C424   C     0.66895   0.02074   0.05261   0.00000  Uiso   1.00
N106   N     0.66893   0.04484   0.04533   0.00000  Uiso   1.00
C425   C     0.66894   0.05212   0.02123   0.00000  Uiso   1.00
N107   N     0.66897   0.03630   0.00113   0.00000  Uiso   1.00
C426   C     0.66897   0.05212   0.98103   0.00000  Uiso   1.00
C427   C     0.66896   0.07697   0.98833   0.00000  Uiso   1.00
C428   C     0.66894   0.07697   0.01393   0.00000  Uiso   1.00
N108   N     0.66898   0.00064   0.96547   0.00000  Uiso   1.00
C429   C     0.66897   0.02074   0.94965   0.00000  Uiso   1.00
N109   N     0.66897   0.04483   0.95694   0.00000  Uiso   1.00
C430   C     0.66896   0.01344   0.92480   0.00000  Uiso   1.00
C431   C     0.66896   0.98784   0.92480   0.00000  Uiso   1.00
C432   C     0.66897   0.98054   0.94965   0.00000  Uiso   1.00
C433   C     0.66891   0.09921   0.02789   0.00000  Uiso   1.00
C434   C     0.66890   0.12206   0.01454   0.00000  Uiso   1.00
C435   C     0.66893   0.12206   0.98770   0.00000  Uiso   1.00
C436   C     0.66895   0.09921   0.97436   0.00000  Uiso   1.00
C437   C     0.66894   0.97388   0.90256   0.00000  Uiso   1.00
C438   C     0.66892   0.98722   0.87971   0.00000  Uiso   1.00
C439   C     0.66891   0.01406   0.87971   0.00000  Uiso   1.00
C440   C     0.66893   0.02740   0.90256   0.00000  Uiso   1.00
N110   N     0.66898   0.96498   0.00114   0.00000  Uiso   1.00
C441   C     0.66897   0.94916   0.98104   0.00000  Uiso   1.00
N111   N     0.66896   0.95644   0.95694   0.00000  Uiso   1.00
C442   C     0.66896   0.92431   0.98834   0.00000  Uiso   1.00
C443   C     0.66897   0.92431   0.01394   0.00000  Uiso   1.00
C444   C     0.66899   0.94916   0.02124   0.00000  Uiso   1.00
C445   C     0.66896   0.90207   0.02790   0.00000  Uiso   1.00
C446   C     0.66893   0.87922   0.01456   0.00000  Uiso   1.00
C447   C     0.66892   0.87921   0.98772   0.00000  Uiso   1.00
C448   C     0.66893   0.90206   0.97438   0.00000  Uiso   1.00
N112   N     0.66899   0.95644   0.04533   0.00000  Uiso   1.00
H105   H     0.66898   0.95352   0.09941   0.00000  Uiso   1.00
O105   O     0.66893   0.97438   0.14544   0.00000  Uiso   1.00
O106   O     0.66887   0.02691   0.14543   0.00000  Uiso   1.00
H106   H     0.66889   0.04777   0.09940   0.00000  Uiso   1.00
H107   H     0.66889   0.09891   0.04825   0.00000  Uiso   1.00
O107   O     0.66887   0.14494   0.02739   0.00000  Uiso   1.00
O108   O     0.66893   0.14494   0.97486   0.00000  Uiso   1.00
H108   H     0.66897   0.09891   0.95400   0.00000  Uiso   1.00
H109   H     0.66894   0.95351   0.90286   0.00000  Uiso   1.00
O109   O     0.66891   0.97438   0.85683   0.00000  Uiso   1.00
O110   O     0.66889   0.02691   0.85683   0.00000  Uiso   1.00
H110   H     0.66893   0.04777   0.90286   0.00000  Uiso   1.00
H111   H     0.66897   0.90237   0.04827   0.00000  Uiso   1.00
O111   O     0.66892   0.85634   0.02741   0.00000  Uiso   1.00
O112   O     0.66888   0.85633   0.97488   0.00000  Uiso   1.00
H112   H     0.66892   0.90236   0.95401   0.00000  Uiso   1.00
Ni14   Ni    0.66898   0.00064   0.00113   0.00000  Uiso   1.00
C449   C     0.02717   0.66918   0.90256   0.00000  Uiso   1.00
C450   C     0.01383   0.66916   0.87970   0.00000  Uiso   1.00
C451   C     0.98699   0.66917   0.87970   0.00000  Uiso   1.00
C452   C     0.97364   0.66920   0.90255   0.00000  Uiso   1.00
C453   C     0.98760   0.66922   0.92479   0.00000  Uiso   1.00
C454   C     0.01320   0.66921   0.92480   0.00000  Uiso   1.00
C455   C     0.02050   0.66922   0.94965   0.00000  Uiso   1.00
N113   N     0.00039   0.66924   0.96546   0.00000  Uiso   1.00
C456   C     0.98030   0.66923   0.94964   0.00000  Uiso   1.00
N114   N     0.95620   0.66923   0.95692   0.00000  Uiso   1.00
C457   C     0.94891   0.66923   0.98101   0.00000  Uiso   1.00
N115   N     0.96473   0.66925   0.00112   0.00000  Uiso   1.00
C458   C     0.94890   0.66925   0.02121   0.00000  Uiso   1.00
C459   C     0.92405   0.66923   0.01391   0.00000  Uiso   1.00
C460   C     0.92406   0.66922   0.98831   0.00000  Uiso   1.00
N116   N     0.00038   0.66925   0.03678   0.00000  Uiso   1.00
C461   C     0.98028   0.66925   0.05260   0.00000  Uiso   1.00
N117   N     0.95618   0.66925   0.04531   0.00000  Uiso   1.00
C462   C     0.98757   0.66924   0.07745   0.00000  Uiso   1.00
C463   C     0.01317   0.66923   0.07745   0.00000  Uiso   1.00
C464   C     0.02047   0.66924   0.05261   0.00000  Uiso   1.00
C465   C     0.90182   0.66919   0.97434   0.00000  Uiso   1.00
C466   C     0.87897   0.66918   0.98768   0.00000  Uiso   1.00
C467   C     0.87896   0.66919   0.01452   0.00000  Uiso   1.00
C468   C     0.90181   0.66921   0.02787   0.00000  Uiso   1.00
C469   C     0.02713   0.66921   0.09970   0.00000  Uiso   1.00
C470   C     0.01379   0.66920   0.12255   0.00000  Uiso   1.00
C471   C     0.98695   0.66921   0.12254   0.00000  Uiso   1.00
C472   C     0.97361   0.66923   0.09969   0.00000  Uiso   1.00
N118   N     0.03605   0.66923   0.00113   0.00000  Uiso   1.00
C473   C     0.05186   0.66922   0.02123   0.00000  Uiso   1.00
N119   N     0.04457   0.66922   0.04533   0.00000  Uiso   1.00
C474   C     0.07671   0.66920   0.01394   0.00000  Uiso   1.00
C475   C     0.07672   0.66920   0.98834   0.00000  Uiso   1.00
C476   C     0.05187   0.66922   0.98104   0.00000  Uiso   1.00
C477   C     0.09897   0.66918   0.97438   0.00000  Uiso   1.00
C478   C     0.12181   0.66916   0.98773   0.00000  Uiso   1.00
C479   C     0.12180   0.66915   0.01457   0.00000  Uiso   1.00
C480   C     0.09895   0.66917   0.02791   0.00000  Uiso   1.00
N120   N     0.04459   0.66921   0.95694   0.00000  Uiso   1.00
H113   H     0.04753   0.66917   0.90286   0.00000  Uiso   1.00
O113   O     0.02668   0.66913   0.85682   0.00000  Uiso   1.00
O114   O     0.97415   0.66916   0.85682   0.00000  Uiso   1.00
H114   H     0.95328   0.66920   0.90284   0.00000  Uiso   1.00
H115   H     0.90212   0.66919   0.95397   0.00000  Uiso   1.00
O115   O     0.85609   0.66915   0.97483   0.00000  Uiso   1.00
O116   O     0.85608   0.66917   0.02736   0.00000  Uiso   1.00
H116   H     0.90211   0.66922   0.04823   0.00000  Uiso   1.00
H117   H     0.04750   0.66920   0.09940   0.00000  Uiso   1.00
O117   O     0.02663   0.66917   0.14543   0.00000  Uiso   1.00
O118   O     0.97410   0.66920   0.14542   0.00000  Uiso   1.00
H118   H     0.95324   0.66924   0.09939   0.00000  Uiso   1.00
H119   H     0.09867   0.66919   0.95402   0.00000  Uiso   1.00
O119   O     0.14470   0.66915   0.97489   0.00000  Uiso   1.00
O120   O     0.14468   0.66913   0.02743   0.00000  Uiso   1.00
H120   H     0.09864   0.66917   0.04827   0.00000  Uiso   1.00
Ni15   Ni    0.00039   0.66924   0.00112   0.00000  Uiso   1.00
C481   C     0.33185   0.97393   0.09972   0.00000  Uiso   1.00
C482   C     0.33187   0.98729   0.12256   0.00000  Uiso   1.00
C483   C     0.33189   0.01413   0.12254   0.00000  Uiso   1.00
C484   C     0.33189   0.02746   0.09968   0.00000  Uiso   1.00
C485   C     0.33187   0.01348   0.07745   0.00000  Uiso   1.00
C486   C     0.33185   0.98788   0.07747   0.00000  Uiso   1.00
C487   C     0.33184   0.98057   0.05262   0.00000  Uiso   1.00
N121   N     0.33184   0.00066   0.03679   0.00000  Uiso   1.00
C488   C     0.33186   0.02077   0.05260   0.00000  Uiso   1.00
N122   N     0.33186   0.04486   0.04530   0.00000  Uiso   1.00
C489   C     0.33186   0.05213   0.02120   0.00000  Uiso   1.00
N123   N     0.33185   0.03630   0.00111   0.00000  Uiso   1.00
C490   C     0.33185   0.05211   0.98100   0.00000  Uiso   1.00
C491   C     0.33186   0.07696   0.98828   0.00000  Uiso   1.00
C492   C     0.33186   0.07697   0.01388   0.00000  Uiso   1.00
N124   N     0.33184   0.00062   0.96547   0.00000  Uiso   1.00
C493   C     0.33185   0.02071   0.94964   0.00000  Uiso   1.00
N125   N     0.33185   0.04481   0.95691   0.00000  Uiso   1.00
C494   C     0.33185   0.01339   0.92479   0.00000  Uiso   1.00
C495   C     0.33184   0.98780   0.92481   0.00000  Uiso   1.00
C496   C     0.33183   0.98051   0.94966   0.00000  Uiso   1.00
C497   C     0.33187   0.09922   0.02783   0.00000  Uiso   1.00
C498   C     0.33188   0.12207   0.01447   0.00000  Uiso   1.00
C499   C     0.33187   0.12205   0.98763   0.00000  Uiso   1.00
C500   C     0.33186   0.09919   0.97431   0.00000  Uiso   1.00
C501   C     0.33184   0.97382   0.90257   0.00000  Uiso   1.00
C502   C     0.33186   0.98715   0.87971   0.00000  Uiso   1.00
C503   C     0.33188   0.01399   0.87970   0.00000  Uiso   1.00
C504   C     0.33187   0.02735   0.90254   0.00000  Uiso   1.00
N126   N     0.33183   0.96498   0.00115   0.00000  Uiso   1.00
C505   C     0.33183   0.94914   0.98106   0.00000  Uiso   1.00
N127   N     0.33183   0.95641   0.95696   0.00000  Uiso   1.00
C506   C     0.33184   0.92430   0.98838   0.00000  Uiso   1.00
C507   C     0.33184   0.92431   0.01397   0.00000  Uiso   1.00
C508   C     0.33184   0.94917   0.02126   0.00000  Uiso   1.00
C509   C     0.33186   0.90208   0.02795   0.00000  Uiso   1.00
C510   C     0.33187   0.87922   0.01463   0.00000  Uiso   1.00
C511   C     0.33186   0.87921   0.98779   0.00000  Uiso   1.00
C512   C     0.33185   0.90205   0.97443   0.00000  Uiso   1.00
N128   N     0.33184   0.95647   0.04535   0.00000  Uiso   1.00
H121   H     0.33184   0.95357   0.09943   0.00000  Uiso   1.00
O121   O     0.33187   0.97445   0.14545   0.00000  Uiso   1.00
O122   O     0.33191   0.02699   0.14542   0.00000  Uiso   1.00
H122   H     0.33190   0.04782   0.09937   0.00000  Uiso   1.00
H123   H     0.33188   0.09894   0.04820   0.00000  Uiso   1.00
O123   O     0.33189   0.14496   0.02730   0.00000  Uiso   1.00
O124   O     0.33187   0.14492   0.97477   0.00000  Uiso   1.00
H124   H     0.33186   0.09888   0.95394   0.00000  Uiso   1.00
H125   H     0.33183   0.95346   0.90288   0.00000  Uiso   1.00
O125   O     0.33186   0.97430   0.85684   0.00000  Uiso   1.00
O126   O     0.33190   0.02683   0.85681   0.00000  Uiso   1.00
H126   H     0.33188   0.04771   0.90283   0.00000  Uiso   1.00
H127   H     0.33186   0.90239   0.04832   0.00000  Uiso   1.00
O127   O     0.33188   0.85635   0.02749   0.00000  Uiso   1.00
O128   O     0.33188   0.85632   0.97495   0.00000  Uiso   1.00
H128   H     0.33185   0.90234   0.95406   0.00000  Uiso   1.00
Ni16   Ni    0.33184   0.00064   0.00113   0.00000  Uiso   1.00
C513   C     0.97362   0.09923   0.33259   0.00000  Uiso   1.00
C514   C     0.98696   0.12208   0.33260   0.00000  Uiso   1.00
C515   C     0.01380   0.12209   0.33261   0.00000  Uiso   1.00
C516   C     0.02715   0.09924   0.33260   0.00000  Uiso   1.00
C517   C     0.01318   0.07699   0.33259   0.00000  Uiso   1.00
C518   C     0.98759   0.07699   0.33259   0.00000  Uiso   1.00
C519   C     0.98029   0.05214   0.33258   0.00000  Uiso   1.00
N129   N     0.00039   0.03632   0.33258   0.00000  Uiso   1.00
C520   C     0.02048   0.05215   0.33259   0.00000  Uiso   1.00
N130   N     0.04458   0.04486   0.33259   0.00000  Uiso   1.00
C521   C     0.05187   0.02077   0.33259   0.00000  Uiso   1.00
N131   N     0.03605   0.00067   0.33258   0.00000  Uiso   1.00
C522   C     0.05187   0.98057   0.33258   0.00000  Uiso   1.00
C523   C     0.07672   0.98787   0.33259   0.00000  Uiso   1.00
C524   C     0.07672   0.01347   0.33260   0.00000  Uiso   1.00
N132   N     0.00039   0.96500   0.33256   0.00000  Uiso   1.00
C525   C     0.02049   0.94918   0.33257   0.00000  Uiso   1.00
N133   N     0.04459   0.95647   0.33258   0.00000  Uiso   1.00
C526   C     0.01319   0.92433   0.33258   0.00000  Uiso   1.00
C527   C     0.98759   0.92433   0.33257   0.00000  Uiso   1.00
C528   C     0.98029   0.94918   0.33256   0.00000  Uiso   1.00
C529   C     0.09896   0.02743   0.33262   0.00000  Uiso   1.00
C530   C     0.12181   0.01409   0.33263   0.00000  Uiso   1.00
C531   C     0.12181   0.98725   0.33261   0.00000  Uiso   1.00
C532   C     0.09896   0.97391   0.33259   0.00000  Uiso   1.00
C533   C     0.97363   0.90209   0.33258   0.00000  Uiso   1.00
C534   C     0.98698   0.87924   0.33260   0.00000  Uiso   1.00
C535   C     0.01382   0.87924   0.33261   0.00000  Uiso   1.00
C536   C     0.02716   0.90209   0.33259   0.00000  Uiso   1.00
N134   N     0.96473   0.00066   0.33257   0.00000  Uiso   1.00
C537   C     0.94891   0.98056   0.33257   0.00000  Uiso   1.00
N135   N     0.95619   0.95647   0.33256   0.00000  Uiso   1.00
C538   C     0.92406   0.98786   0.33258   0.00000  Uiso   1.00
C539   C     0.92406   0.01346   0.33260   0.00000  Uiso   1.00
C540   C     0.94891   0.02076   0.33259   0.00000  Uiso   1.00
C541   C     0.90182   0.02742   0.33262   0.00000  Uiso   1.00
C542   C     0.87897   0.01408   0.33263   0.00000  Uiso   1.00
C543   C     0.87896   0.98724   0.33261   0.00000  Uiso   1.00
C544   C     0.90182   0.97390   0.33259   0.00000  Uiso   1.00
N136   N     0.95619   0.04486   0.33259   0.00000  Uiso   1.00
H129   H     0.95326   0.09893   0.33259   0.00000  Uiso   1.00
O129   O     0.97412   0.14496   0.33260   0.00000  Uiso   1.00
O130   O     0.02665   0.14497   0.33262   0.00000  Uiso   1.00
H130   H     0.04751   0.09894   0.33261   0.00000  Uiso   1.00
H131   H     0.09865   0.04780   0.33263   0.00000  Uiso   1.00
O131   O     0.14469   0.02694   0.33265   0.00000  Uiso   1.00
O132   O     0.14469   0.97441   0.33260   0.00000  Uiso   1.00
H132   H     0.09866   0.95354   0.33258   0.00000  Uiso   1.00
H133   H     0.95327   0.90239   0.33257   0.00000  Uiso   1.00
O133   O     0.97413   0.85636   0.33261   0.00000  Uiso   1.00
O134   O     0.02667   0.85636   0.33263   0.00000  Uiso   1.00
H134   H     0.04752   0.90240   0.33260   0.00000  Uiso   1.00
H135   H     0.90212   0.04779   0.33263   0.00000  Uiso   1.00
O135   O     0.85608   0.02693   0.33266   0.00000  Uiso   1.00
O136   O     0.85608   0.97440   0.33261   0.00000  Uiso   1.00
H136   H     0.90211   0.95353   0.33257   0.00000  Uiso   1.00
Ni17   Ni    0.00039   0.00066   0.33257   0.00000  Uiso   1.00
C545   C     0.97363   0.09922   0.66964   0.00000  Uiso   1.00
C546   C     0.98698   0.12207   0.66962   0.00000  Uiso   1.00
C547   C     0.01382   0.12206   0.66961   0.00000  Uiso   1.00
C548   C     0.02716   0.09921   0.66962   0.00000  Uiso   1.00
C549   C     0.01319   0.07697   0.66964   0.00000  Uiso   1.00
C550   C     0.98759   0.07698   0.66965   0.00000  Uiso   1.00
C551   C     0.98029   0.05213   0.66967   0.00000  Uiso   1.00
N137   N     0.00039   0.03630   0.66967   0.00000  Uiso   1.00
C552   C     0.02049   0.05212   0.66965   0.00000  Uiso   1.00
N138   N     0.04459   0.04484   0.66965   0.00000  Uiso   1.00
C553   C     0.05187   0.02074   0.66966   0.00000  Uiso   1.00
N139   N     0.03605   0.00064   0.66968   0.00000  Uiso   1.00
C554   C     0.05187   0.98055   0.66968   0.00000  Uiso   1.00
C555   C     0.07672   0.98784   0.66967   0.00000  Uiso   1.00
C556   C     0.07672   0.01344   0.66965   0.00000  Uiso   1.00
N140   N     0.00039   0.96499   0.66969   0.00000  Uiso   1.00
C557   C     0.02049   0.94916   0.66969   0.00000  Uiso   1.00
N141   N     0.04458   0.95645   0.66968   0.00000  Uiso   1.00
C558   C     0.01318   0.92431   0.66968   0.00000  Uiso   1.00
C559   C     0.98759   0.92431   0.66969   0.00000  Uiso   1.00
C560   C     0.98029   0.94916   0.66969   0.00000  Uiso   1.00
C561   C     0.09896   0.02741   0.66963   0.00000  Uiso   1.00
C562   C     0.12181   0.01406   0.66962   0.00000  Uiso   1.00
C563   C     0.12181   0.98722   0.66964   0.00000  Uiso   1.00
C564   C     0.09896   0.97388   0.66966   0.00000  Uiso   1.00
C565   C     0.97362   0.90207   0.66968   0.00000  Uiso   1.00
C566   C     0.98697   0.87922   0.66966   0.00000  Uiso   1.00
C567   C     0.01381   0.87922   0.66965   0.00000  Uiso   1.00
C568   C     0.02715   0.90207   0.66966   0.00000  Uiso   1.00
N142   N     0.96473   0.00065   0.66969   0.00000  Uiso   1.00
C569   C     0.94891   0.98055   0.66970   0.00000  Uiso   1.00
N143   N     0.95619   0.95645   0.66970   0.00000  Uiso   1.00
C570   C     0.92406   0.98785   0.66969   0.00000  Uiso   1.00
C571   C     0.92406   0.01345   0.66968   0.00000  Uiso   1.00
C572   C     0.94891   0.02075   0.66968   0.00000  Uiso   1.00
C573   C     0.90182   0.02741   0.66965   0.00000  Uiso   1.00
C574   C     0.87897   0.01407   0.66964   0.00000  Uiso   1.00
C575   C     0.87897   0.98723   0.66966   0.00000  Uiso   1.00
C576   C     0.90181   0.97389   0.66968   0.00000  Uiso   1.00
N144   N     0.95619   0.04484   0.66967   0.00000  Uiso   1.00
H137   H     0.95327   0.09892   0.66965   0.00000  Uiso   1.00
O137   O     0.97413   0.14495   0.66961   0.00000  Uiso   1.00
O138   O     0.02667   0.14495   0.66959   0.00000  Uiso   1.00
H138   H     0.04752   0.09891   0.66961   0.00000  Uiso   1.00
H139   H     0.09866   0.04777   0.66962   0.00000  Uiso   1.00
O139   O     0.14469   0.02691   0.66960   0.00000  Uiso   1.00
O140   O     0.14469   0.97438   0.66964   0.00000  Uiso   1.00
H140   H     0.09866   0.95352   0.66967   0.00000  Uiso   1.00
H141   H     0.95326   0.90237   0.66968   0.00000  Uiso   1.00
O141   O     0.97412   0.85634   0.66965   0.00000  Uiso   1.00
O142   O     0.02665   0.85634   0.66963   0.00000  Uiso   1.00
H142   H     0.04751   0.90237   0.66965   0.00000  Uiso   1.00
H143   H     0.90212   0.04778   0.66964   0.00000  Uiso   1.00
O143   O     0.85609   0.02692   0.66962   0.00000  Uiso   1.00
O144   O     0.85608   0.97439   0.66966   0.00000  Uiso   1.00
H144   H     0.90211   0.95352   0.66969   0.00000  Uiso   1.00
Ni18   Ni    0.00039   0.00064   0.66969   0.00000  Uiso   1.00
Cu1    Cu    0.00003   0.50066   0.33263   0.00000  Uiso   1.00
Cu2    Cu    0.50039  -0.00003   0.33265   0.00000  Uiso   1.00
Cu3    Cu    0.00003   0.50064   0.66959   0.00000  Uiso   1.00
Cu4    Cu    0.50039  -0.00003   0.66961   0.00000  Uiso   1.00
Cu5    Cu    0.33191  -0.00002   0.50113   0.00000  Uiso   1.00
Cu6    Cu    0.00003   0.33217   0.50110   0.00000  Uiso   1.00
Cu7    Cu    0.66886  -0.00002   0.50113   0.00000  Uiso   1.00
Cu8    Cu    0.00003   0.66913   0.50112   0.00000  Uiso   1.00
Cu9    Cu    0.50039   0.33215   0.00076   0.00000  Uiso   1.00
Cu10   Cu    0.50039   0.66911   0.00110   0.00000  Uiso   1.00
Cu11   Cu    0.33191   0.50063   0.00088   0.00000  Uiso   1.00
Cu12   Cu    0.66886   0.50063   0.00096   0.00000  Uiso   1.00
Zn1    Zn    0.00043   0.33218   0.16687   0.00000  Uiso   1.00
Zn2    Zn    0.66889   0.00065   0.16690   0.00000  Uiso   1.00
Zn3    Zn    0.00037   0.66917   0.16689   0.00000  Uiso   1.00
Zn4    Zn    0.33190   0.00073   0.16689   0.00000  Uiso   1.00
Zn5    Zn    0.00042   0.66913   0.83536   0.00000  Uiso   1.00
Zn6    Zn    0.33188   0.00055   0.83536   0.00000  Uiso   1.00
Zn7    Zn    0.00035   0.33215   0.83534   0.00000  Uiso   1.00
Zn8    Zn    0.66889   0.00064   0.83537   0.00000  Uiso   1.00
Zn9    Zn    0.16615   0.00068   0.33263   0.00000  Uiso   1.00
Zn10   Zn    0.00038   0.16643   0.33261   0.00000  Uiso   1.00
Zn11   Zn    0.83462   0.00066   0.33264   0.00000  Uiso   1.00
Zn12   Zn    0.00040   0.83490   0.33263   0.00000  Uiso   1.00
Zn13   Zn    0.16615   0.00064   0.66961   0.00000  Uiso   1.00
Zn14   Zn    0.00040   0.16641   0.66959   0.00000  Uiso   1.00
Zn15   Zn    0.83462   0.00066   0.66963   0.00000  Uiso   1.00
Zn16   Zn    0.00039   0.83488   0.66963   0.00000  Uiso   1.00
Zn17   Zn    0.33189   0.16640   0.00102   0.00000  Uiso   1.00
Zn18   Zn    0.33189   0.83487   0.00124   0.00000  Uiso   1.00
Zn19   Zn    0.16615   0.33216   0.00105   0.00000  Uiso   1.00
Zn20   Zn    0.66889   0.16640   0.00112   0.00000  Uiso   1.00
Zn21   Zn    0.83462   0.66915   0.00109   0.00000  Uiso   1.00
Zn22   Zn    0.66889   0.83487   0.00115   0.00000  Uiso   1.00
Zn23   Zn    0.16615   0.66913   0.00117   0.00000  Uiso   1.00
Zn24   Zn    0.83462   0.33214   0.00116   0.00000  Uiso   1.00
loop_
_geom_bond_atom_site_label_1
_geom_bond_atom_site_label_2
_geom_bond_distance
_geom_bond_site_symmetry_2
_ccdc_geom_bond_type
C1     C2      1.406   .     A
C1     C6      1.396   .     A
C1     H1      1.083   .     S
C2     C3      1.427   .     A
C2     O1      1.395   .     S
C3     C4      1.406   .     A
C3     O2      1.395   .     S
C4     C5      1.396   .     A
C4     H2      1.083   .     S
C5     C6      1.360   .     A
C5     C8      1.377   .     A
C6     C7      1.377   .     A
C7     N1      1.360   .     A
C7     N8      1.338   .     A
N1     C8      1.360   .     A
N1     Ni1     1.896   .     S
C8     N2      1.338   .     A
N2     C9      1.338   .     A
C9     N3      1.360   .     A
C9     C12     1.377   .     A
N3     C10     1.360   .     A
N3     Ni1     1.896   .     S
C10    C11     1.377   .     A
C10    N5      1.338   .     A
C11    C12     1.360   .     A
C11    C20     1.396   .     A
C12    C17     1.396   .     A
N4     C13     1.360   .     A
N4     C16     1.360   .     A
N4     Ni1     1.896   .     S
C13    N5      1.338   .     A
C13    C14     1.376   .     A
C14    C15     1.363   .     A
C14    C24     1.399   .     A
C15    C16     1.376   .     A
C15    C21     1.399   .     A
C16    N7      1.338   .     A
C17    C18     1.406   .     A
C17    H3      1.083   .     S
C18    C19     1.427   .     A
C18    O3      1.395   .     S
C19    C20     1.406   .     A
C19    O4      1.395   .     S
C20    H4      1.083   .     S
C21    C22     1.406   .     A
C21    H5      1.082   .     S
C22    C23     1.388   .     A
C22    O5      1.381   .     S
C23    C24     1.406   .     A
C23    O6      1.381   .     S
C24    H6      1.082   .     S
N6     C25     1.360   .     A
N6     C28     1.360   .     A
N6     Ni1     1.896   .     S
C25    N7      1.338   .     A
C25    C26     1.376   .     A
C26    C27     1.363   .     A
C26    C32     1.399   .     A
C27    C28     1.376   .     A
C27    C29     1.399   .     A
C28    N8      1.338   .     A
C29    C30     1.406   .     A
C29    H7      1.082   .     S
C30    C31     1.388   .     A
C30    O7      1.381   .     S
C31    C32     1.406   .     A
C31    O8      1.381   .     S
C32    H8      1.082   .     S
O1     Zn10    1.803   .     S
O2     Zn10    1.803   .     S
O3     Zn1     1.803   .     S
O4     Zn1     1.803   .     S
O5     Cu1     1.814   .     S
O6     Cu1     1.814   .     S
O7     Cu6     1.814   .     S
O8     Cu6     1.814   .     S
C33    C34     1.406   .     A
C33    C38     1.396   .     A
C33    H9      1.083   .     S
C34    C35     1.427   .     A
C34    O9      1.395   .     S
C35    C36     1.406   .     A
C35    O10     1.395   .     S
C36    C37     1.396   .     A
C36    H10     1.083   .     S
C37    C38     1.360   .     A
C37    C40     1.377   .     A
C38    C39     1.377   .     A
C39    N9      1.360   .     A
C39    N16     1.338   .     A
N9     C40     1.360   .     A
N9     Ni2     1.896   .     S
C40    N10     1.338   .     A
N10    C41     1.338   .     A
C41    N11     1.360   .     A
C41    C44     1.377   .     A
N11    C42     1.360   .     A
N11    Ni2     1.896   .     S
C42    C43     1.377   .     A
C42    N13     1.338   .     A
C43    C44     1.360   .     A
C43    C52     1.396   .     A
C44    C49     1.396   .     A
N12    C45     1.360   .     A
N12    C48     1.360   .     A
N12    Ni2     1.896   .     S
C45    N13     1.338   .     A
C45    C46     1.376   .     A
C46    C47     1.363   .     A
C46    C56     1.399   .     A
C47    C48     1.376   .     A
C47    C53     1.399   .     A
C48    N15     1.338   .     A
C49    C50     1.406   .     A
C49    H11     1.083   .     S
C50    C51     1.427   .     A
C50    O11     1.395   .     S
C51    C52     1.406   .     A
C51    O12     1.395   .     S
C52    H12     1.083   .     S
C53    C54     1.406   .     A
C53    H13     1.082   .     S
C54    C55     1.388   .     A
C54    O13     1.381   .     S
C55    C56     1.406   .     A
C55    O14     1.381   .     S
C56    H14     1.082   .     S
N14    C57     1.360   .     A
N14    C60     1.360   .     A
N14    Ni2     1.896   .     S
C57    N15     1.338   .     A
C57    C58     1.376   .     A
C58    C59     1.363   .     A
C58    C64     1.399   .     A
C59    C60     1.376   .     A
C59    C61     1.399   .     A
C60    N16     1.338   .     A
C61    C62     1.406   .     A
C61    H15     1.082   .     S
C62    C63     1.388   .     A
C62    O15     1.381   .     S
C63    C64     1.406   .     A
C63    O16     1.381   .     S
C64    H16     1.082   .     S
O9     Zn2     1.803   .     S
O10    Zn2     1.803   .     S
O11    Zn11    1.803   .     S
O12    Zn11    1.803   .     S
O13    Cu7     1.814   .     S
O14    Cu7     1.814   .     S
O15    Cu2     1.814   .     S
O16    Cu2     1.814   .     S
C65    C66     1.406   .     A
C65    C70     1.396   .     A
C65    H17     1.083   .     S
C66    C67     1.427   .     A
C66    O17     1.395   .     S
C67    C68     1.406   .     A
C67    O18     1.395   .     S
C68    C69     1.396   .     A
C68    H18     1.083   .     S
C69    C70     1.360   .     A
C69    C72     1.377   .     A
C70    C71     1.377   .     A
C71    N17     1.360   .     A
C71    N24     1.338   .     A
N17    C72     1.360   .     A
N17    Ni3     1.896   .     S
C72    N18     1.338   .     A
N18    C73     1.338   .     A
C73    N19     1.360   .     A
C73    C76     1.377   .     A
N19    C74     1.360   .     A
N19    Ni3     1.896   .     S
C74    C75     1.377   .     A
C74    N21     1.338   .     A
C75    C76     1.360   .     A
C75    C84     1.396   .     A
C76    C81     1.396   .     A
N20    C77     1.360   .     A
N20    C80     1.360   .     A
N20    Ni3     1.896   .     S
C77    N21     1.338   .     A
C77    C78     1.376   .     A
C78    C79     1.363   .     A
C78    C88     1.399   .     A
C79    C80     1.376   .     A
C79    C85     1.399   .     A
C80    N23     1.338   .     A
C81    C82     1.406   .     A
C81    H19     1.083   .     S
C82    C83     1.427   .     A
C82    O19     1.395   .     S
C83    C84     1.406   .     A
C83    O20     1.395   .     S
C84    H20     1.083   .     S
C85    C86     1.406   .     A
C85    H21     1.082   .     S
C86    C87     1.388   .     A
C86    O21     1.381   .     S
C87    C88     1.406   .     A
C87    O22     1.381   .     S
C88    H22     1.082   .     S
N22    C89     1.360   .     A
N22    C92     1.360   .     A
N22    Ni3     1.896   .     S
C89    N23     1.338   .     A
C89    C90     1.376   .     A
C90    C91     1.363   .     A
C90    C96     1.399   .     A
C91    C92     1.376   .     A
C91    C93     1.399   .     A
C92    N24     1.338   .     A
C93    C94     1.406   .     A
C93    H23     1.082   .     S
C94    C95     1.388   .     A
C94    O23     1.381   .     S
C95    C96     1.406   .     A
C95    O24     1.381   .     S
C96    H24     1.082   .     S
O17    Zn12    1.803   .     S
O18    Zn12    1.803   .     S
O19    Zn3     1.803   .     S
O20    Zn3     1.803   .     S
O21    Cu1     1.814   .     S
O22    Cu1     1.814   .     S
O23    Cu8     1.814   .     S
O24    Cu8     1.814   .     S
C97    C98     1.406   .     A
C97    C102    1.396   .     A
C97    H25     1.083   .     S
C98    C99     1.427   .     A
C98    O25     1.395   .     S
C99    C100    1.406   .     A
C99    O26     1.395   .     S
C100   C101    1.396   .     A
C100   H26     1.083   .     S
C101   C102    1.360   .     A
C101   C104    1.377   .     A
C102   C103    1.377   .     A
C103   N25     1.360   .     A
C103   N32     1.338   .     A
N25    C104    1.360   .     A
N25    Ni4     1.896   .     S
C104   N26     1.338   .     A
N26    C105    1.338   .     A
C105   N27     1.360   .     A
C105   C108    1.377   .     A
N27    C106    1.360   .     A
N27    Ni4     1.896   .     S
C106   C107    1.377   .     A
C106   N29     1.338   .     A
C107   C108    1.360   .     A
C107   C116    1.396   .     A
C108   C113    1.396   .     A
N28    C109    1.360   .     A
N28    C112    1.360   .     A
N28    Ni4     1.896   .     S
C109   N29     1.338   .     A
C109   C110    1.376   .     A
C110   C111    1.363   .     A
C110   C120    1.399   .     A
C111   C112    1.376   .     A
C111   C117    1.399   .     A
C112   N31     1.338   .     A
C113   C114    1.406   .     A
C113   H27     1.083   .     S
C114   C115    1.427   .     A
C114   O27     1.395   .     S
C115   C116    1.406   .     A
C115   O28     1.395   .     S
C116   H28     1.083   .     S
C117   C118    1.406   .     A
C117   H29     1.082   .     S
C118   C119    1.388   .     A
C118   O29     1.381   .     S
C119   C120    1.406   .     A
C119   O30     1.381   .     S
C120   H30     1.082   .     S
N30    C121    1.360   .     A
N30    C124    1.360   .     A
N30    Ni4     1.896   .     S
C121   N31     1.338   .     A
C121   C122    1.376   .     A
C122   C123    1.363   .     A
C122   C128    1.399   .     A
C123   C124    1.376   .     A
C123   C125    1.399   .     A
C124   N32     1.338   .     A
C125   C126    1.406   .     A
C125   H31     1.082   .     S
C126   C127    1.388   .     A
C126   O31     1.381   .     S
C127   C128    1.406   .     A
C127   O32     1.381   .     S
C128   H32     1.082   .     S
O25    Zn4     1.803   .     S
O26    Zn4     1.803   .     S
O27    Zn9     1.803   .     S
O28    Zn9     1.803   .     S
O29    Cu5     1.814   .     S
O30    Cu5     1.814   .     S
O31    Cu2     1.814   .     S
O32    Cu2     1.814   .     S
C129   C130    1.406   .     A
C129   C134    1.396   .     A
C129   H33     1.083   .     S
C130   C131    1.427   .     A
C130   O33     1.395   .     S
C131   C132    1.406   .     A
C131   O34     1.395   .     S
C132   C133    1.396   .     A
C132   H34     1.083   .     S
C133   C134    1.360   .     A
C133   C136    1.377   .     A
C134   C135    1.377   .     A
C135   N33     1.360   .     A
C135   N40     1.338   .     A
N33    C136    1.360   .     A
N33    Ni5     1.896   .     S
C136   N34     1.338   .     A
N34    C137    1.338   .     A
C137   N35     1.360   .     A
C137   C140    1.377   .     A
N35    C138    1.360   .     A
N35    Ni5     1.896   .     S
C138   C139    1.377   .     A
C138   N37     1.338   .     A
C139   C140    1.360   .     A
C139   C148    1.396   .     A
C140   C145    1.396   .     A
N36    C141    1.360   .     A
N36    C144    1.360   .     A
N36    Ni5     1.896   .     S
C141   N37     1.338   .     A
C141   C142    1.376   .     A
C142   C143    1.363   .     A
C142   C152    1.399   .     A
C143   C144    1.376   .     A
C143   C149    1.399   .     A
C144   N39     1.338   .     A
C145   C146    1.406   .     A
C145   H35     1.083   .     S
C146   C147    1.427   .     A
C146   O35     1.395   .     S
C147   C148    1.406   .     A
C147   O36     1.395   .     S
C148   H36     1.083   .     S
C149   C150    1.406   .     A
C149   H37     1.082   .     S
C150   C151    1.388   .     A
C150   O37     1.381   .     S
C151   C152    1.406   .     A
C151   O38     1.381   .     S
C152   H38     1.082   .     S
N38    C153    1.360   .     A
N38    C156    1.360   .     A
N38    Ni5     1.896   .     S
C153   N39     1.338   .     A
C153   C154    1.376   .     A
C154   C155    1.363   .     A
C154   C160    1.399   .     A
C155   C156    1.376   .     A
C155   C157    1.399   .     A
C156   N40     1.338   .     A
C157   C158    1.406   .     A
C157   H39     1.082   .     S
C158   C159    1.388   .     A
C158   O39     1.381   .     S
C159   C160    1.406   .     A
C159   O40     1.381   .     S
C160   H40     1.082   .     S
O33    Zn5     1.803   .     S
O34    Zn5     1.803   .     S
O35    Zn16    1.803   .     S
O36    Zn16    1.803   .     S
O37    Cu8     1.814   .     S
O38    Cu8     1.814   .     S
O39    Cu3     1.814   .     S
O40    Cu3     1.814   .     S
C161   C162    1.406   .     A
C161   C166    1.396   .     A
C161   H41     1.083   .     S
C162   C163    1.427   .     A
C162   O41     1.395   .     S
C163   C164    1.406   .     A
C163   O42     1.395   .     S
C164   C165    1.396   .     A
C164   H42     1.083   .     S
C165   C166    1.360   .     A
C165   C168    1.377   .     A
C166   C167    1.377   .     A
C167   N41     1.360   .     A
C167   N48     1.338   .     A
N41    C168    1.360   .     A
N41    Ni6     1.896   .     S
C168   N42     1.338   .     A
N42    C169    1.338   .     A
C169   N43     1.360   .     A
C169   C172    1.377   .     A
N43    C170    1.360   .     A
N43    Ni6     1.895   .     S
C170   C171    1.377   .     A
C170   N45     1.338   .     A
C171   C172    1.360   .     A
C171   C180    1.396   .     A
C172   C177    1.396   .     A
N44    C173    1.360   .     A
N44    C176    1.360   .     A
N44    Ni6     1.896   .     S
C173   N45     1.338   .     A
C173   C174    1.376   .     A
C174   C175    1.363   .     A
C174   C184    1.399   .     A
C175   C176    1.376   .     A
C175   C181    1.399   .     A
C176   N47     1.338   .     A
C177   C178    1.406   .     A
C177   H43     1.083   .     S
C178   C179    1.427   .     A
C178   O43     1.395   .     S
C179   C180    1.406   .     A
C179   O44     1.395   .     S
C180   H44     1.083   .     S
C181   C182    1.406   .     A
C181   H45     1.082   .     S
C182   C183    1.388   .     A
C182   O45     1.381   .     S
C183   C184    1.406   .     A
C183   O46     1.381   .     S
C184   H46     1.082   .     S
N46    C185    1.360   .     A
N46    C188    1.360   .     A
N46    Ni6     1.896   .     S
C185   N47     1.338   .     A
C185   C186    1.376   .     A
C186   C187    1.363   .     A
C186   C192    1.399   .     A
C187   C188    1.376   .     A
C187   C189    1.399   .     A
C188   N48     1.338   .     A
C189   C190    1.406   .     A
C189   H47     1.082   .     S
C190   C191    1.388   .     A
C190   O47     1.381   .     S
C191   C192    1.406   .     A
C191   O48     1.381   .     S
C192   H48     1.082   .     S
O41    Zn6     1.803   .     S
O42    Zn6     1.803   .     S
O43    Zn13    1.803   .     S
O44    Zn13    1.803   .     S
O45    Cu5     1.814   .     S
O46    Cu5     1.814   .     S
O47    Cu4     1.814   .     S
O48    Cu4     1.814   .     S
C193   C194    1.406   .     A
C193   C198    1.396   .     A
C193   H49     1.083   .     S
C194   C195    1.427   .     A
C194   O49     1.395   .     S
C195   C196    1.406   .     A
C195   O50     1.395   .     S
C196   C197    1.396   .     A
C196   H50     1.083   .     S
C197   C198    1.360   .     A
C197   C200    1.377   .     A
C198   C199    1.377   .     A
C199   N49     1.360   .     A
C199   N56     1.338   .     A
N49    C200    1.360   .     A
N49    Ni7     1.896   .     S
C200   N50     1.338   .     A
N50    C201    1.338   .     A
C201   N51     1.360   .     A
C201   C204    1.377   .     A
N51    C202    1.360   .     A
N51    Ni7     1.896   .     S
C202   C203    1.377   .     A
C202   N53     1.338   .     A
C203   C204    1.360   .     A
C203   C212    1.396   .     A
C204   C209    1.396   .     A
N52    C205    1.360   .     A
N52    C208    1.360   .     A
N52    Ni7     1.896   .     S
C205   N53     1.338   .     A
C205   C206    1.376   .     A
C206   C207    1.363   .     A
C206   C216    1.399   .     A
C207   C208    1.376   .     A
C207   C213    1.399   .     A
C208   N55     1.338   .     A
C209   C210    1.406   .     A
C209   H51     1.083   .     S
C210   C211    1.427   .     A
C210   O51     1.395   .     S
C211   C212    1.406   .     A
C211   O52     1.395   .     S
C212   H52     1.083   .     S
C213   C214    1.406   .     A
C213   H53     1.082   .     S
C214   C215    1.388   .     A
C214   O53     1.381   .     S
C215   C216    1.406   .     A
C215   O54     1.381   .     S
C216   H54     1.082   .     S
N54    C217    1.360   .     A
N54    C220    1.360   .     A
N54    Ni7     1.896   .     S
C217   N55     1.338   .     A
C217   C218    1.376   .     A
C218   C219    1.363   .     A
C218   C224    1.399   .     A
C219   C220    1.376   .     A
C219   C221    1.399   .     A
C220   N56     1.338   .     A
C221   C222    1.406   .     A
C221   H55     1.082   .     S
C222   C223    1.388   .     A
C222   O55     1.381   .     S
C223   C224    1.406   .     A
C223   O56     1.381   .     S
C224   H56     1.082   .     S
O49    Zn7     1.803   .     S
O50    Zn7     1.803   .     S
O51    Zn14    1.803   .     S
O52    Zn14    1.803   .     S
O53    Cu6     1.814   .     S
O54    Cu6     1.814   .     S
O55    Cu3     1.814   .     S
O56    Cu3     1.814   .     S
C225   C226    1.406   .     A
C225   C230    1.396   .     A
C225   H57     1.083   .     S
C226   C227    1.427   .     A
C226   O57     1.395   .     S
C227   C228    1.406   .     A
C227   O58     1.395   .     S
C228   C229    1.396   .     A
C228   H58     1.083   .     S
C229   C230    1.360   .     A
C229   C232    1.377   .     A
C230   C231    1.377   .     A
C231   N57     1.360   .     A
C231   N64     1.338   .     A
N57    C232    1.360   .     A
N57    Ni8     1.896   .     S
C232   N58     1.338   .     A
N58    C233    1.338   .     A
C233   N59     1.360   .     A
C233   C236    1.377   .     A
N59    C234    1.360   .     A
N59    Ni8     1.896   .     S
C234   C235    1.377   .     A
C234   N61     1.338   .     A
C235   C236    1.360   .     A
C235   C244    1.396   .     A
C236   C241    1.396   .     A
N60    C237    1.360   .     A
N60    C240    1.360   .     A
N60    Ni8     1.896   .     S
C237   N61     1.338   .     A
C237   C238    1.376   .     A
C238   C239    1.363   .     A
C238   C248    1.399   .     A
C239   C240    1.376   .     A
C239   C245    1.399   .     A
C240   N63     1.338   .     A
C241   C242    1.406   .     A
C241   H59     1.083   .     S
C242   C243    1.427   .     A
C242   O59     1.395   .     S
C243   C244    1.406   .     A
C243   O60     1.395   .     S
C244   H60     1.083   .     S
C245   C246    1.406   .     A
C245   H61     1.082   .     S
C246   C247    1.388   .     A
C246   O61     1.381   .     S
C247   C248    1.406   .     A
C247   O62     1.381   .     S
C248   H62     1.082   .     S
N62    C249    1.360   .     A
N62    C252    1.360   .     A
N62    Ni8     1.896   .     S
C249   N63     1.338   .     A
C249   C250    1.376   .     A
C250   C251    1.363   .     A
C250   C256    1.399   .     A
C251   C252    1.376   .     A
C251   C253    1.399   .     A
C252   N64     1.338   .     A
C253   C254    1.406   .     A
C253   H63     1.082   .     S
C254   C255    1.388   .     A
C254   O63     1.381   .     S
C255   C256    1.406   .     A
C255   O64     1.381   .     S
C256   H64     1.082   .     S
O57    Zn8     1.803   .     S
O58    Zn8     1.803   .     S
O59    Zn15    1.803   .     S
O60    Zn15    1.803   .     S
O61    Cu7     1.814   .     S
O62    Cu7     1.814   .     S
O63    Cu4     1.814   .     S
O64    Cu4     1.814   .     S
C257   C258    1.406   .     A
C257   C262    1.396   .     A
C257   H65     1.083   .     S
C258   C259    1.427   .     A
C258   O65     1.395   .     S
C259   C260    1.406   .     A
C259   O66     1.395   .     S
C260   C261    1.396   .     A
C260   H66     1.083   .     S
C261   C262    1.360   .     A
C261   C264    1.377   .     A
C262   C263    1.377   .     A
C263   N65     1.360   .     A
C263   N72     1.338   .     A
N65    C264    1.360   .     A
N65    Ni9     1.896   .     S
C264   N66     1.338   .     A
N66    C265    1.338   .     A
C265   N67     1.360   .     A
C265   C268    1.377   .     A
N67    C266    1.360   .     A
N67    Ni9     1.896   .     S
C266   C267    1.377   .     A
C266   N69     1.338   .     A
C267   C268    1.360   .     A
C267   C276    1.396   .     A
C268   C273    1.396   .     A
N68    C269    1.360   .     A
N68    C272    1.360   .     A
N68    Ni9     1.896   .     S
C269   N69     1.338   .     A
C269   C270    1.376   .     A
C270   C271    1.363   .     A
C270   C280    1.399   .     A
C271   C272    1.376   .     A
C271   C277    1.399   .     A
C272   N71     1.338   .     A
C273   C274    1.406   .     A
C273   H67     1.083   .     S
C274   C275    1.427   .     A
C274   O67     1.395   .     S
C275   C276    1.406   .     A
C275   O68     1.395   .     S
C276   H68     1.083   .     S
C277   C278    1.406   .     A
C277   H69     1.082   .     S
C278   C279    1.388   .     A
C278   O69     1.381   .     S
C279   C280    1.406   .     A
C279   O70     1.381   .     S
C280   H70     1.082   .     S
N70    C281    1.360   .     A
N70    C284    1.360   .     A
N70    Ni9     1.896   .     S
C281   N71     1.338   .     A
C281   C282    1.376   .     A
C282   C283    1.363   .     A
C282   C288    1.399   .     A
C283   C284    1.376   .     A
C283   C285    1.399   .     A
C284   N72     1.338   .     A
C285   C286    1.406   .     A
C285   H71     1.082   .     S
C286   C287    1.388   .     A
C286   O71     1.381   .     S
C287   C288    1.406   .     A
C287   O72     1.381   .     S
C288   H72     1.082   .     S
O65    Zn17    1.803   .     S
O66    Zn17    1.803   .     S
O67    Zn19    1.803   .     S
O68    Zn19    1.803   .     S
O69    Cu11    1.814   .     S
O70    Cu11    1.814   .     S
O71    Cu9     1.814   .     S
O72    Cu9     1.814   .     S
C289   C290    1.406   .     A
C289   C294    1.396   .     A
C289   H73     1.083   .     S
C290   C291    1.427   .     A
C290   O73     1.395   .     S
C291   C292    1.406   .     A
C291   O74     1.395   .     S
C292   C293    1.396   .     A
C292   H74     1.083   .     S
C293   C294    1.360   .     A
C293   C296    1.377   .     A
C294   C295    1.377   .     A
C295   N73     1.360   .     A
C295   N80     1.338   .     A
N73    C296    1.360   .     A
N73    Ni10    1.896   .     S
C296   N74     1.338   .     A
N74    C297    1.338   .     A
C297   N75     1.360   .     A
C297   C300    1.377   .     A
N75    C298    1.360   .     A
N75    Ni10    1.895   .     S
C298   C299    1.377   .     A
C298   N77     1.338   .     A
C299   C300    1.360   .     A
C299   C308    1.396   .     A
C300   C305    1.396   .     A
N76    C301    1.360   .     A
N76    C304    1.360   .     A
N76    Ni10    1.896   .     S
C301   N77     1.338   .     A
C301   C302    1.376   .     A
C302   C303    1.363   .     A
C302   C312    1.399   .     A
C303   C304    1.376   .     A
C303   C309    1.399   .     A
C304   N79     1.338   .     A
C305   C306    1.406   .     A
C305   H75     1.083   .     S
C306   C307    1.427   .     A
C306   O75     1.395   .     S
C307   C308    1.406   .     A
C307   O76     1.395   .     S
C308   H76     1.083   .     S
C309   C310    1.406   .     A
C309   H77     1.082   .     S
C310   C311    1.388   .     A
C310   O77     1.381   .     S
C311   C312    1.406   .     A
C311   O78     1.381   .     S
C312   H78     1.082   .     S
N78    C313    1.360   .     A
N78    C316    1.360   .     A
N78    Ni10    1.896   .     S
C313   N79     1.338   .     A
C313   C314    1.376   .     A
C314   C315    1.363   .     A
C314   C320    1.399   .     A
C315   C316    1.376   .     A
C315   C317    1.399   .     A
C316   N80     1.338   .     A
C317   C318    1.406   .     A
C317   H79     1.082   .     S
C318   C319    1.388   .     A
C318   O79     1.381   .     S
C319   C320    1.406   .     A
C319   O80     1.381   .     S
C320   H80     1.082   .     S
O73    Zn18    1.803   .     S
O74    Zn18    1.803   .     S
O75    Zn23    1.803   .     S
O76    Zn23    1.803   .     S
O77    Cu11    1.814   .     S
O78    Cu11    1.814   .     S
O79    Cu10    1.814   .     S
O80    Cu10    1.814   .     S
C321   C322    1.406   .     A
C321   C326    1.396   .     A
C321   H81     1.083   .     S
C322   C323    1.427   .     A
C322   O81     1.395   .     S
C323   C324    1.406   .     A
C323   O82     1.395   .     S
C324   C325    1.396   .     A
C324   H82     1.083   .     S
C325   C326    1.360   .     A
C325   C328    1.377   .     A
C326   C327    1.377   .     A
C327   N81     1.360   .     A
C327   N88     1.338   .     A
N81    C328    1.360   .     A
N81    Ni11    1.896   .     S
C328   N82     1.338   .     A
N82    C329    1.338   .     A
C329   N83     1.360   .     A
C329   C332    1.377   .     A
N83    C330    1.360   .     A
N83    Ni11    1.896   .     S
C330   C331    1.377   .     A
C330   N85     1.338   .     A
C331   C332    1.360   .     A
C331   C340    1.396   .     A
C332   C337    1.396   .     A
N84    C333    1.360   .     A
N84    C336    1.360   .     A
N84    Ni11    1.896   .     S
C333   N85     1.338   .     A
C333   C334    1.376   .     A
C334   C335    1.363   .     A
C334   C344    1.399   .     A
C335   C336    1.376   .     A
C335   C341    1.399   .     A
C336   N87     1.338   .     A
C337   C338    1.406   .     A
C337   H83     1.083   .     S
C338   C339    1.427   .     A
C338   O83     1.395   .     S
C339   C340    1.406   .     A
C339   O84     1.395   .     S
C340   H84     1.083   .     S
C341   C342    1.406   .     A
C341   H85     1.082   .     S
C342   C343    1.388   .     A
C342   O85     1.381   .     S
C343   C344    1.406   .     A
C343   O86     1.381   .     S
C344   H86     1.082   .     S
N86    C345    1.360   .     A
N86    C348    1.360   .     A
N86    Ni11    1.896   .     S
C345   N87     1.338   .     A
C345   C346    1.376   .     A
C346   C347    1.363   .     A
C346   C352    1.399   .     A
C347   C348    1.376   .     A
C347   C349    1.399   .     A
C348   N88     1.338   .     A
C349   C350    1.406   .     A
C349   H87     1.082   .     S
C350   C351    1.388   .     A
C350   O87     1.381   .     S
C351   C352    1.406   .     A
C351   O88     1.381   .     S
C352   H88     1.082   .     S
O81    Zn20    1.803   .     S
O82    Zn20    1.803   .     S
O83    Zn24    1.803   .     S
O84    Zn24    1.803   .     S
O85    Cu12    1.814   .     S
O86    Cu12    1.814   .     S
O87    Cu9     1.814   .     S
O88    Cu9     1.814   .     S
C353   C354    1.406   .     A
C353   C358    1.396   .     A
C353   H89     1.083   .     S
C354   C355    1.427   .     A
C354   O89     1.395   .     S
C355   C356    1.406   .     A
C355   O90     1.395   .     S
C356   C357    1.396   .     A
C356   H90     1.083   .     S
C357   C358    1.360   .     A
C357   C360    1.377   .     A
C358   C359    1.377   .     A
C359   N89     1.360   .     A
C359   N96     1.338   .     A
N89    C360    1.360   .     A
N89    Ni12    1.896   .     S
C360   N90     1.338   .     A
N90    C361    1.338   .     A
C361   N91     1.360   .     A
C361   C364    1.377   .     A
N91    C362    1.360   .     A
N91    Ni12    1.896   .     S
C362   C363    1.377   .     A
C362   N93     1.338   .     A
C363   C364    1.360   .     A
C363   C372    1.396   .     A
C364   C369    1.396   .     A
N92    C365    1.360   .     A
N92    C368    1.360   .     A
N92    Ni12    1.896   .     S
C365   N93     1.338   .     A
C365   C366    1.376   .     A
C366   C367    1.363   .     A
C366   C376    1.399   .     A
C367   C368    1.376   .     A
C367   C373    1.399   .     A
C368   N95     1.338   .     A
C369   C370    1.406   .     A
C369   H91     1.083   .     S
C370   C371    1.427   .     A
C370   O91     1.395   .     S
C371   C372    1.406   .     A
C371   O92     1.395   .     S
C372   H92     1.083   .     S
C373   C374    1.406   .     A
C373   H93     1.082   .     S
C374   C375    1.388   .     A
C374   O93     1.381   .     S
C375   C376    1.406   .     A
C375   O94     1.381   .     S
C376   H94     1.082   .     S
N94    C377    1.360   .     A
N94    C380    1.360   .     A
N94    Ni12    1.896   .     S
C377   N95     1.338   .     A
C377   C378    1.376   .     A
C378   C379    1.363   .     A
C378   C384    1.399   .     A
C379   C380    1.376   .     A
C379   C381    1.399   .     A
C380   N96     1.338   .     A
C381   C382    1.406   .     A
C381   H95     1.082   .     S
C382   C383    1.388   .     A
C382   O95     1.381   .     S
C383   C384    1.406   .     A
C383   O96     1.381   .     S
C384   H96     1.082   .     S
O89    Zn22    1.803   .     S
O90    Zn22    1.803   .     S
O91    Zn21    1.803   .     S
O92    Zn21    1.803   .     S
O93    Cu12    1.814   .     S
O94    Cu12    1.814   .     S
O95    Cu10    1.814   .     S
O96    Cu10    1.814   .     S
C385   C386    1.406   .     A
C385   C390    1.396   .     A
C385   H97     1.083   .     S
C386   C387    1.427   1_655 A
C386   O97     1.395   .     S
C387   C386    1.427   1_455 A
C387   C388    1.406   .     A
C387   O98     1.395   .     S
C388   C389    1.396   .     A
C388   H98     1.083   .     S
C389   C390    1.361   1_455 A
C389   C392    1.377   .     A
C390   C389    1.361   1_655 A
C390   C391    1.377   .     A
C391   N97     1.360   1_655 A
C391   N104    1.338   .     A
N97    C391    1.360   1_455 A
N97    C392    1.360   .     A
N97    Ni13    1.895   .     S
C392   N98     1.338   .     A
N98    C393    1.338   .     A
C393   N99     1.360   .     A
C393   C396    1.377   .     A
N99    C394    1.360   1_554 A
N99    Ni13    1.895   .     S
C394   N99     1.360   1_556 A
C394   C395    1.377   .     A
C394   N101    1.338   .     A
C395   C396    1.361   1_556 A
C395   C404    1.396   .     A
C396   C395    1.361   1_554 A
C396   C401    1.396   .     A
N100   C397    1.360   .     A
N100   C400    1.360   1_455 A
N100   Ni13    1.895   1_556 S
C397   N101    1.338   .     A
C397   C398    1.377   .     A
C398   C399    1.361   1_455 A
C398   C408    1.396   .     A
C399   C398    1.361   1_655 A
C399   C400    1.377   .     A
C399   C405    1.396   .     A
C400   N100    1.360   1_655 A
C400   N103    1.338   .     A
C401   C402    1.406   .     A
C401   H99     1.083   .     S
C402   C403    1.427   1_554 A
C402   O99     1.395   .     S
C403   C402    1.427   1_556 A
C403   C404    1.406   .     A
C403   O100    1.395   .     S
C404   H100    1.083   .     S
C405   C406    1.406   .     A
C405   H101    1.083   .     S
C406   C407    1.427   1_655 A
C406   O101    1.395   .     S
C407   C406    1.427   1_455 A
C407   C408    1.406   .     A
C407   O102    1.395   .     S
C408   H102    1.083   .     S
N102   C409    1.360   1_554 A
N102   C412    1.360   .     A
N102   Ni13    1.895   1_655 S
C409   N102    1.360   1_556 A
C409   N103    1.338   .     A
C409   C410    1.377   .     A
C410   C411    1.361   1_556 A
C410   C416    1.396   .     A
C411   C410    1.361   1_554 A
C411   C412    1.377   .     A
C411   C413    1.396   .     A
C412   N104    1.338   .     A
C413   C414    1.406   .     A
C413   H103    1.083   .     S
C414   C415    1.427   1_554 A
C414   O103    1.395   .     S
C415   C414    1.427   1_556 A
C415   C416    1.406   .     A
C415   O104    1.395   .     S
C416   H104    1.083   .     S
O97    Zn1     1.803   1_655 S
O98    Zn1     1.803   .     S
O99    Zn19    1.803   .     S
O100   Zn19    1.803   1_556 S
O101   Zn7     1.803   1_655 S
O102   Zn7     1.803   .     S
O103   Zn24    1.803   .     S
O104   Zn24    1.803   1_556 S
Ni13   N102    1.895   1_455 S
Ni13   N100    1.895   1_554 S
C417   C418    1.406   .     A
C417   C422    1.396   .     A
C417   H105    1.083   .     S
C418   C419    1.427   1_565 A
C418   O105    1.395   .     S
C419   C418    1.427   1_545 A
C419   C420    1.406   .     A
C419   O106    1.395   .     S
C420   C421    1.396   .     A
C420   H106    1.083   .     S
C421   C422    1.361   1_545 A
C421   C424    1.377   .     A
C422   C421    1.361   1_565 A
C422   C423    1.377   .     A
C423   N105    1.360   1_565 A
C423   N112    1.338   .     A
N105   C423    1.360   1_545 A
N105   C424    1.360   .     A
N105   Ni14    1.895   .     S
C424   N106    1.338   .     A
N106   C425    1.338   .     A
C425   N107    1.360   .     A
C425   C428    1.377   .     A
N107   C426    1.360   1_554 A
N107   Ni14    1.895   .     S
C426   N107    1.360   1_556 A
C426   C427    1.377   .     A
C426   N109    1.338   .     A
C427   C428    1.361   1_556 A
C427   C436    1.396   .     A
C428   C427    1.361   1_554 A
C428   C433    1.396   .     A
N108   C429    1.360   .     A
N108   C432    1.360   1_545 A
N108   Ni14    1.895   1_556 S
C429   N109    1.338   .     A
C429   C430    1.377   .     A
C430   C431    1.361   1_545 A
C430   C440    1.396   .     A
C431   C430    1.361   1_565 A
C431   C432    1.377   .     A
C431   C437    1.396   .     A
C432   N108    1.360   1_565 A
C432   N111    1.338   .     A
C433   C434    1.406   .     A
C433   H107    1.083   .     S
C434   C435    1.427   1_554 A
C434   O107    1.395   .     S
C435   C434    1.427   1_556 A
C435   C436    1.406   .     A
C435   O108    1.395   .     S
C436   H108    1.083   .     S
C437   C438    1.406   .     A
C437   H109    1.083   .     S
C438   C439    1.427   1_565 A
C438   O109    1.395   .     S
C439   C438    1.427   1_545 A
C439   C440    1.406   .     A
C439   O110    1.395   .     S
C440   H110    1.083   .     S
N110   C441    1.360   1_554 A
N110   C444    1.360   .     A
N110   Ni14    1.895   1_565 S
C441   N110    1.360   1_556 A
C441   N111    1.338   .     A
C441   C442    1.377   .     A
C442   C443    1.361   1_556 A
C442   C448    1.396   .     A
C443   C442    1.361   1_554 A
C443   C444    1.377   .     A
C443   C445    1.396   .     A
C444   N112    1.338   .     A
C445   C446    1.406   .     A
C445   H111    1.083   .     S
C446   C447    1.427   1_554 A
C446   O111    1.395   .     S
C447   C446    1.427   1_556 A
C447   C448    1.406   .     A
C447   O112    1.395   .     S
C448   H112    1.083   .     S
O105   Zn2     1.803   1_565 S
O106   Zn2     1.803   .     S
O107   Zn20    1.803   .     S
O108   Zn20    1.803   1_556 S
O109   Zn8     1.803   1_565 S
O110   Zn8     1.803   .     S
O111   Zn22    1.803   .     S
O112   Zn22    1.803   1_556 S
Ni14   N110    1.895   1_545 S
Ni14   N108    1.895   1_554 S
C449   C450    1.406   .     A
C449   C454    1.396   .     A
C449   H113    1.083   .     S
C450   C451    1.427   1_455 A
C450   O113    1.395   .     S
C451   C450    1.427   1_655 A
C451   C452    1.406   .     A
C451   O114    1.395   .     S
C452   C453    1.396   .     A
C452   H114    1.083   .     S
C453   C454    1.361   1_655 A
C453   C456    1.377   .     A
C454   C453    1.361   1_455 A
C454   C455    1.377   .     A
C455   N113    1.360   .     A
C455   N120    1.338   .     A
N113   C456    1.360   1_455 A
N113   Ni15    1.895   1_556 S
C456   N113    1.360   1_655 A
C456   N114    1.338   .     A
N114   C457    1.338   .     A
C457   N115    1.360   1_556 A
C457   C460    1.377   .     A
N115   C457    1.360   1_554 A
N115   C458    1.360   .     A
N115   Ni15    1.895   1_655 S
C458   C459    1.377   .     A
C458   N117    1.338   .     A
C459   C460    1.361   1_554 A
C459   C468    1.396   .     A
C460   C459    1.361   1_556 A
C460   C465    1.396   .     A
N116   C461    1.360   1_455 A
N116   C464    1.360   .     A
N116   Ni15    1.895   .     S
C461   N116    1.360   1_655 A
C461   N117    1.338   .     A
C461   C462    1.377   .     A
C462   C463    1.361   1_655 A
C462   C472    1.396   .     A
C463   C462    1.361   1_455 A
C463   C464    1.377   .     A
C463   C469    1.396   .     A
C464   N119    1.338   .     A
C465   C466    1.406   .     A
C465   H115    1.083   .     S
C466   C467    1.427   1_556 A
C466   O115    1.395   .     S
C467   C466    1.427   1_554 A
C467   C468    1.406   .     A
C467   O116    1.395   .     S
C468   H116    1.083   .     S
C469   C470    1.406   .     A
C469   H117    1.083   .     S
C470   C471    1.427   1_455 A
C470   O117    1.395   .     S
C471   C470    1.427   1_655 A
C471   C472    1.406   .     A
C471   O118    1.395   .     S
C472   H118    1.083   .     S
N118   C473    1.360   .     A
N118   C476    1.360   1_554 A
N118   Ni15    1.895   .     S
C473   N119    1.338   .     A
C473   C474    1.377   .     A
C474   C475    1.361   1_554 A
C474   C480    1.396   .     A
C475   C474    1.361   1_556 A
C475   C476    1.377   .     A
C475   C477    1.396   .     A
C476   N118    1.360   1_556 A
C476   N120    1.338   .     A
C477   C478    1.406   .     A
C477   H119    1.083   .     S
C478   C479    1.427   1_556 A
C478   O119    1.395   .     S
C479   C478    1.427   1_554 A
C479   C480    1.406   .     A
C479   O120    1.395   .     S
C480   H120    1.083   .     S
O113   Zn5     1.803   .     S
O114   Zn5     1.803   1_655 S
O115   Zn21    1.803   1_556 S
O116   Zn21    1.803   .     S
O117   Zn3     1.803   .     S
O118   Zn3     1.803   1_655 S
O119   Zn23    1.803   1_556 S
O120   Zn23    1.803   .     S
Ni15   N115    1.895   1_455 S
Ni15   N113    1.895   1_554 S
C481   C482    1.406   .     A
C481   C486    1.396   .     A
C481   H121    1.083   .     S
C482   C483    1.427   1_565 A
C482   O121    1.395   .     S
C483   C482    1.427   1_545 A
C483   C484    1.406   .     A
C483   O122    1.395   .     S
C484   C485    1.396   .     A
C484   H122    1.083   .     S
C485   C486    1.361   1_545 A
C485   C488    1.377   .     A
C486   C485    1.361   1_565 A
C486   C487    1.377   .     A
C487   N121    1.360   1_565 A
C487   N128    1.338   .     A
N121   C487    1.360   1_545 A
N121   C488    1.360   .     A
N121   Ni16    1.895   .     S
C488   N122    1.338   .     A
N122   C489    1.338   .     A
C489   N123    1.360   .     A
C489   C492    1.377   .     A
N123   C490    1.360   1_554 A
N123   Ni16    1.895   .     S
C490   N123    1.360   1_556 A
C490   C491    1.377   .     A
C490   N125    1.338   .     A
C491   C492    1.361   1_556 A
C491   C500    1.396   .     A
C492   C491    1.361   1_554 A
C492   C497    1.396   .     A
N124   C493    1.360   .     A
N124   C496    1.360   1_545 A
N124   Ni16    1.895   1_556 S
C493   N125    1.338   .     A
C493   C494    1.377   .     A
C494   C495    1.361   1_545 A
C494   C504    1.396   .     A
C495   C494    1.361   1_565 A
C495   C496    1.377   .     A
C495   C501    1.396   .     A
C496   N124    1.360   1_565 A
C496   N127    1.338   .     A
C497   C498    1.406   .     A
C497   H123    1.083   .     S
C498   C499    1.427   1_554 A
C498   O123    1.395   .     S
C499   C498    1.427   1_556 A
C499   C500    1.406   .     A
C499   O124    1.395   .     S
C500   H124    1.083   .     S
C501   C502    1.406   .     A
C501   H125    1.083   .     S
C502   C503    1.427   1_565 A
C502   O125    1.395   .     S
C503   C502    1.427   1_545 A
C503   C504    1.406   .     A
C503   O126    1.395   .     S
C504   H126    1.083   .     S
N126   C505    1.360   1_554 A
N126   C508    1.360   .     A
N126   Ni16    1.895   1_565 S
C505   N126    1.360   1_556 A
C505   N127    1.338   .     A
C505   C506    1.377   .     A
C506   C507    1.361   1_556 A
C506   C512    1.396   .     A
C507   C506    1.361   1_554 A
C507   C508    1.377   .     A
C507   C509    1.396   .     A
C508   N128    1.338   .     A
C509   C510    1.406   .     A
C509   H127    1.083   .     S
C510   C511    1.427   1_554 A
C510   O127    1.395   .     S
C511   C510    1.427   1_556 A
C511   C512    1.406   .     A
C511   O128    1.395   .     S
C512   H128    1.083   .     S
O121   Zn4     1.803   1_565 S
O122   Zn4     1.803   .     S
O123   Zn17    1.803   .     S
O124   Zn17    1.803   1_556 S
O125   Zn6     1.803   1_565 S
O126   Zn6     1.803   .     S
O127   Zn18    1.803   .     S
O128   Zn18    1.803   1_556 S
Ni16   N126    1.895   1_545 S
Ni16   N124    1.895   1_554 S
C513   C514    1.406   .     A
C513   C518    1.396   .     A
C513   H129    1.083   .     S
C514   C515    1.427   1_655 A
C514   O129    1.395   .     S
C515   C514    1.427   1_455 A
C515   C516    1.406   .     A
C515   O130    1.395   .     S
C516   C517    1.396   .     A
C516   H130    1.083   .     S
C517   C518    1.361   1_455 A
C517   C520    1.377   .     A
C518   C517    1.361   1_655 A
C518   C519    1.377   .     A
C519   N129    1.360   1_655 A
C519   N136    1.338   .     A
N129   C519    1.360   1_455 A
N129   C520    1.360   .     A
N129   Ni17    1.895   .     S
C520   N130    1.338   .     A
N130   C521    1.338   .     A
C521   N131    1.360   .     A
C521   C524    1.377   .     A
N131   C522    1.360   1_545 A
N131   Ni17    1.895   .     S
C522   N131    1.360   1_565 A
C522   C523    1.377   .     A
C522   N133    1.338   .     A
C523   C524    1.361   1_565 A
C523   C532    1.396   .     A
C524   C523    1.361   1_545 A
C524   C529    1.396   .     A
N132   C525    1.360   .     A
N132   C528    1.360   1_455 A
N132   Ni17    1.895   1_565 S
C525   N133    1.338   .     A
C525   C526    1.377   .     A
C526   C527    1.361   1_455 A
C526   C536    1.396   .     A
C527   C526    1.361   1_655 A
C527   C528    1.377   .     A
C527   C533    1.396   .     A
C528   N132    1.360   1_655 A
C528   N135    1.338   .     A
C529   C530    1.406   .     A
C529   H131    1.083   .     S
C530   C531    1.427   1_545 A
C530   O131    1.395   .     S
C531   C530    1.427   1_565 A
C531   C532    1.406   .     A
C531   O132    1.395   .     S
C532   H132    1.083   .     S
C533   C534    1.406   .     A
C533   H133    1.083   .     S
C534   C535    1.427   1_655 A
C534   O133    1.395   .     S
C535   C534    1.427   1_455 A
C535   C536    1.406   .     A
C535   O134    1.395   .     S
C536   H134    1.083   .     S
N134   C537    1.360   1_545 A
N134   C540    1.360   .     A
N134   Ni17    1.895   1_655 S
C537   N134    1.360   1_565 A
C537   N135    1.338   .     A
C537   C538    1.377   .     A
C538   C539    1.361   1_565 A
C538   C544    1.396   .     A
C539   C538    1.361   1_545 A
C539   C540    1.377   .     A
C539   C541    1.396   .     A
C540   N136    1.338   .     A
C541   C542    1.406   .     A
C541   H135    1.083   .     S
C542   C543    1.427   1_545 A
C542   O135    1.395   .     S
C543   C542    1.427   1_565 A
C543   C544    1.406   .     A
C543   O136    1.395   .     S
C544   H136    1.083   .     S
O129   Zn10    1.803   1_655 S
O130   Zn10    1.803   .     S
O131   Zn9     1.803   .     S
O132   Zn9     1.803   1_565 S
O133   Zn12    1.803   1_655 S
O134   Zn12    1.803   .     S
O135   Zn11    1.803   .     S
O136   Zn11    1.803   1_565 S
Ni17   N134    1.895   1_455 S
Ni17   N132    1.895   1_545 S
C545   C546    1.406   .     A
C545   C550    1.396   .     A
C545   H137    1.083   .     S
C546   C547    1.427   1_655 A
C546   O137    1.395   .     S
C547   C546    1.427   1_455 A
C547   C548    1.406   .     A
C547   O138    1.395   .     S
C548   C549    1.396   .     A
C548   H138    1.083   .     S
C549   C550    1.361   1_455 A
C549   C552    1.377   .     A
C550   C549    1.361   1_655 A
C550   C551    1.377   .     A
C551   N137    1.360   1_655 A
C551   N144    1.338   .     A
N137   C551    1.360   1_455 A
N137   C552    1.360   .     A
N137   Ni18    1.895   .     S
C552   N138    1.338   .     A
N138   C553    1.338   .     A
C553   N139    1.360   .     A
C553   C556    1.377   .     A
N139   C554    1.360   1_545 A
N139   Ni18    1.895   .     S
C554   N139    1.360   1_565 A
C554   C555    1.377   .     A
C554   N141    1.338   .     A
C555   C556    1.361   1_565 A
C555   C564    1.396   .     A
C556   C555    1.361   1_545 A
C556   C561    1.396   .     A
N140   C557    1.360   .     A
N140   C560    1.360   1_455 A
N140   Ni18    1.895   1_565 S
C557   N141    1.338   .     A
C557   C558    1.377   .     A
C558   C559    1.361   1_455 A
C558   C568    1.396   .     A
C559   C558    1.361   1_655 A
C559   C560    1.377   .     A
C559   C565    1.396   .     A
C560   N140    1.360   1_655 A
C560   N143    1.338   .     A
C561   C562    1.406   .     A
C561   H139    1.083   .     S
C562   C563    1.427   1_545 A
C562   O139    1.395   .     S
C563   C562    1.427   1_565 A
C563   C564    1.406   .     A
C563   O140    1.395   .     S
C564   H140    1.083   .     S
C565   C566    1.406   .     A
C565   H141    1.083   .     S
C566   C567    1.427   1_655 A
C566   O141    1.395   .     S
C567   C566    1.427   1_455 A
C567   C568    1.406   .     A
C567   O142    1.395   .     S
C568   H142    1.083   .     S
N142   C569    1.360   1_545 A
N142   C572    1.360   .     A
N142   Ni18    1.895   1_655 S
C569   N142    1.360   1_565 A
C569   N143    1.338   .     A
C569   C570    1.377   .     A
C570   C571    1.361   1_565 A
C570   C576    1.396   .     A
C571   C570    1.361   1_545 A
C571   C572    1.377   .     A
C571   C573    1.396   .     A
C572   N144    1.338   .     A
C573   C574    1.406   .     A
C573   H143    1.083   .     S
C574   C575    1.427   1_545 A
C574   O143    1.395   .     S
C575   C574    1.427   1_565 A
C575   C576    1.406   .     A
C575   O144    1.395   .     S
C576   H144    1.083   .     S
O137   Zn14    1.803   1_655 S
O138   Zn14    1.803   .     S
O139   Zn13    1.803   .     S
O140   Zn13    1.803   1_565 S
O141   Zn16    1.803   1_655 S
O142   Zn16    1.803   .     S
O143   Zn15    1.803   .     S
O144   Zn15    1.803   1_565 S
Ni18   N142    1.895   1_455 S
Ni18   N140    1.895   1_545 S
Zn1    O97     1.803   1_455 S
Zn2    O105    1.803   1_545 S
Zn3    O118    1.803   1_455 S
Zn4    O121    1.803   1_545 S
Zn5    O114    1.803   1_455 S
Zn6    O125    1.803   1_545 S
Zn7    O101    1.803   1_455 S
Zn8    O109    1.803   1_545 S
Zn9    O132    1.803   1_545 S
Zn10   O129    1.803   1_455 S
Zn11   O136    1.803   1_545 S
Zn12   O133    1.803   1_455 S
Zn13   O140    1.803   1_545 S
Zn14   O137    1.803   1_455 S
Zn15   O144    1.803   1_545 S
Zn16   O141    1.803   1_455 S
Zn17   O124    1.803   1_554 S
Zn18   O128    1.803   1_554 S
Zn19   O100    1.803   1_554 S
Zn20   O108    1.803   1_554 S
Zn21   O115    1.803   1_554 S
Zn22   O112    1.803   1_554 S
Zn23   O119    1.803   1_554 S
Zn24   O104    1.803   1_554 S
