data_ssd-PcMN_O-Zntet
_audit_creation_date              2021-11-06
_audit_creation_method            'Materials Studio'
_symmetry_space_group_name_H-M    'P1'
_symmetry_Int_Tables_number       1
_symmetry_cell_setting            triclinic
loop_
_symmetry_equiv_pos_as_xyz
  x,y,z
_cell_length_a                    67.7408
_cell_length_b                    67.7408
_cell_length_c                    67.7408
_cell_angle_alpha                 90.0206
_cell_angle_beta                  90.0199
_cell_angle_gamma                 90.0192
loop_
_atom_site_label
_atom_site_type_symbol
_atom_site_fract_x
_atom_site_fract_y
_atom_site_fract_z
_atom_site_U_iso_or_equiv
_atom_site_adp_type
_atom_site_occupancy
C1     C     0.00074   0.25566   0.31211   0.00000  Uiso   1.00
C2     C     0.00080   0.23763   0.32254   0.00000  Uiso   1.00
C3     C     0.00074   0.23766   0.34368   0.00000  Uiso   1.00
C4     C     0.00061   0.25572   0.35407   0.00000  Uiso   1.00
C5     C     0.00055   0.27313   0.34310   0.00000  Uiso   1.00
C6     C     0.00061   0.27311   0.32305   0.00000  Uiso   1.00
C7     C     0.00053   0.29261   0.31730   0.00000  Uiso   1.00
N1     N     0.00042   0.30503   0.33307   0.00000  Uiso   1.00
C8     C     0.00043   0.29262   0.34883   0.00000  Uiso   1.00
N2     N     0.00035   0.29834   0.36774   0.00000  Uiso   1.00
C9     C     0.00023   0.31725   0.37346   0.00000  Uiso   1.00
N3     N     0.00020   0.33301   0.36105   0.00000  Uiso   1.00
C10    C     0.00011   0.34877   0.37347   0.00000  Uiso   1.00
C11    C     0.00008   0.34304   0.39297   0.00000  Uiso   1.00
C12    C     0.00016   0.32299   0.39296   0.00000  Uiso   1.00
N4     N     0.00020   0.36098   0.33309   0.00000  Uiso   1.00
C13    C     0.00010   0.37339   0.34886   0.00000  Uiso   1.00
N5     N     0.00006   0.36768   0.36776   0.00000  Uiso   1.00
C14    C     0.00008   0.39289   0.34313   0.00000  Uiso   1.00
C15    C     0.00015   0.39289   0.32307   0.00000  Uiso   1.00
C16    C     0.00022   0.37339   0.31733   0.00000  Uiso   1.00
C17    C     0.00019   0.31202   0.41038   0.00000  Uiso   1.00
C18    C     0.00015   0.32244   0.42842   0.00000  Uiso   1.00
C19    C     0.00007   0.34362   0.42842   0.00000  Uiso   1.00
C20    C     0.00003   0.35402   0.41038   0.00000  Uiso   1.00
C21    C     0.00018   0.41031   0.31211   0.00000  Uiso   1.00
C22    C     0.00014   0.42835   0.32253   0.00000  Uiso   1.00
C23    C     0.00006   0.42835   0.34371   0.00000  Uiso   1.00
C24    C     0.00003   0.41031   0.35411   0.00000  Uiso   1.00
N6     N     0.00042   0.33300   0.30510   0.00000  Uiso   1.00
C25    C     0.00043   0.34877   0.29270   0.00000  Uiso   1.00
N7     N     0.00034   0.36768   0.29842   0.00000  Uiso   1.00
C26    C     0.00054   0.34304   0.27320   0.00000  Uiso   1.00
C27    C     0.00061   0.32298   0.27318   0.00000  Uiso   1.00
C28    C     0.00053   0.31723   0.29268   0.00000  Uiso   1.00
C29    C     0.00073   0.31205   0.25574   0.00000  Uiso   1.00
C30    C     0.00080   0.32248   0.23770   0.00000  Uiso   1.00
C31    C     0.00074   0.34362   0.23774   0.00000  Uiso   1.00
C32    C     0.00061   0.35401   0.25580   0.00000  Uiso   1.00
N8     N     0.00059   0.29832   0.29839   0.00000  Uiso   1.00
H1     H     0.00078   0.25608   0.29612   0.00000  Uiso   1.00
H2     H     0.00056   0.25617   0.37006   0.00000  Uiso   1.00
H3     H     0.00027   0.29603   0.40995   0.00000  Uiso   1.00
H4     H    -0.00002   0.37001   0.40995   0.00000  Uiso   1.00
H5     H     0.00025   0.40988   0.29612   0.00000  Uiso   1.00
H6     H    -0.00002   0.40987   0.37010   0.00000  Uiso   1.00
H7     H     0.00078   0.29606   0.25614   0.00000  Uiso   1.00
H8     H     0.00056   0.37000   0.25625   0.00000  Uiso   1.00
C33    C     0.00092   0.31227   0.21968   0.00000  Uiso   1.00
C34    C     0.00097   0.32269   0.20188   0.00000  Uiso   1.00
C35    C     0.00092   0.34354   0.20193   0.00000  Uiso   1.00
C36    C     0.00080   0.35389   0.21976   0.00000  Uiso   1.00
C37    C     0.00092   0.21961   0.31233   0.00000  Uiso   1.00
C38    C     0.00097   0.20181   0.32274   0.00000  Uiso   1.00
C39    C     0.00092   0.20185   0.34359   0.00000  Uiso   1.00
C40    C     0.00081   0.21968   0.35395   0.00000  Uiso   1.00
C41    C     0.00021   0.31223   0.44648   0.00000  Uiso   1.00
C42    C     0.00020   0.32290   0.46412   0.00000  Uiso   1.00
C43    C     0.00013   0.34319   0.46412   0.00000  Uiso   1.00
C44    C     0.00006   0.35384   0.44648   0.00000  Uiso   1.00
C45    C     0.00018   0.44640   0.31233   0.00000  Uiso   1.00
C46    C     0.00018   0.46405   0.32300   0.00000  Uiso   1.00
C47    C     0.00011   0.46404   0.34328   0.00000  Uiso   1.00
C48    C     0.00005   0.44640   0.35393   0.00000  Uiso   1.00
H9     H     0.00096   0.29627   0.21940   0.00000  Uiso   1.00
O1     O     0.00106   0.31260   0.18391   0.00000  Uiso   1.00
O2     O     0.00097   0.35369   0.18401   0.00000  Uiso   1.00
H10    H     0.00076   0.36989   0.21955   0.00000  Uiso   1.00
H11    H     0.00096   0.21933   0.29633   0.00000  Uiso   1.00
O3     O     0.00106   0.18384   0.31265   0.00000  Uiso   1.00
O4     O     0.00096   0.18393   0.35375   0.00000  Uiso   1.00
H12    H     0.00076   0.21947   0.36994   0.00000  Uiso   1.00
H13    H     0.00027   0.29624   0.44687   0.00000  Uiso   1.00
O5     O     0.00027   0.31393   0.48243   0.00000  Uiso   1.00
O6     O     0.00015   0.35217   0.48243   0.00000  Uiso   1.00
H14    H     0.00001   0.36983   0.44687   0.00000  Uiso   1.00
H15    H     0.00024   0.44680   0.29634   0.00000  Uiso   1.00
O7     O     0.00024   0.48236   0.31403   0.00000  Uiso   1.00
O8     O     0.00013   0.48235   0.35227   0.00000  Uiso   1.00
H16    H    -0.00000   0.44679   0.36992   0.00000  Uiso   1.00
Ni1    Ni    0.00031   0.33300   0.33308   0.00000  Uiso   1.00
C49    C     0.69007   0.00109   0.25588   0.00000  Uiso   1.00
C50    C     0.67963   0.00112   0.23784   0.00000  Uiso   1.00
C51    C     0.65849   0.00110   0.23786   0.00000  Uiso   1.00
C52    C     0.64810   0.00107   0.25592   0.00000  Uiso   1.00
C53    C     0.65908   0.00105   0.27333   0.00000  Uiso   1.00
C54    C     0.67913   0.00106   0.27332   0.00000  Uiso   1.00
C55    C     0.68488   0.00105   0.29282   0.00000  Uiso   1.00
N9     N     0.66912   0.00103   0.30524   0.00000  Uiso   1.00
C56    C     0.65335   0.00103   0.29282   0.00000  Uiso   1.00
N10    N     0.63445   0.00100   0.29853   0.00000  Uiso   1.00
C57    C     0.62873   0.00098   0.31744   0.00000  Uiso   1.00
N11    N     0.64115   0.00101   0.33321   0.00000  Uiso   1.00
C58    C     0.62873   0.00097   0.34897   0.00000  Uiso   1.00
C59    C     0.60924   0.00091   0.34323   0.00000  Uiso   1.00
C60    C     0.60924   0.00092   0.32317   0.00000  Uiso   1.00
N12    N     0.66912   0.00107   0.36118   0.00000  Uiso   1.00
C61    C     0.65336   0.00108   0.37360   0.00000  Uiso   1.00
N13    N     0.63445   0.00101   0.36788   0.00000  Uiso   1.00
C62    C     0.65910   0.00115   0.39309   0.00000  Uiso   1.00
C63    C     0.67916   0.00118   0.39310   0.00000  Uiso   1.00
C64    C     0.68489   0.00113   0.37360   0.00000  Uiso   1.00
C65    C     0.59182   0.00086   0.31219   0.00000  Uiso   1.00
C66    C     0.57378   0.00077   0.32260   0.00000  Uiso   1.00
C67    C     0.57378   0.00075   0.34378   0.00000  Uiso   1.00
C68    C     0.59182   0.00083   0.35419   0.00000  Uiso   1.00
C69    C     0.69013   0.00128   0.41052   0.00000  Uiso   1.00
C70    C     0.67972   0.00135   0.42856   0.00000  Uiso   1.00
C71    C     0.65855   0.00133   0.42855   0.00000  Uiso   1.00
C72    C     0.64813   0.00122   0.41051   0.00000  Uiso   1.00
N14    N     0.69710   0.00108   0.33321   0.00000  Uiso   1.00
C73    C     0.70951   0.00110   0.34898   0.00000  Uiso   1.00
N15    N     0.70380   0.00114   0.36789   0.00000  Uiso   1.00
C74    C     0.72900   0.00109   0.34326   0.00000  Uiso   1.00
C75    C     0.72902   0.00106   0.32320   0.00000  Uiso   1.00
C76    C     0.70952   0.00105   0.31745   0.00000  Uiso   1.00
C77    C     0.74645   0.00104   0.31227   0.00000  Uiso   1.00
C78    C     0.76449   0.00105   0.32271   0.00000  Uiso   1.00
C79    C     0.76447   0.00108   0.34385   0.00000  Uiso   1.00
C80    C     0.74642   0.00110   0.35423   0.00000  Uiso   1.00
N16    N     0.70380   0.00105   0.29854   0.00000  Uiso   1.00
H17    H     0.70606   0.00111   0.25630   0.00000  Uiso   1.00
H18    H     0.63211   0.00106   0.25636   0.00000  Uiso   1.00
H19    H     0.59225   0.00087   0.29621   0.00000  Uiso   1.00
H20    H     0.59225   0.00081   0.37018   0.00000  Uiso   1.00
H21    H     0.70612   0.00130   0.41009   0.00000  Uiso   1.00
H22    H     0.63214   0.00120   0.41008   0.00000  Uiso   1.00
H23    H     0.74604   0.00101   0.29628   0.00000  Uiso   1.00
H24    H     0.74597   0.00113   0.37022   0.00000  Uiso   1.00
C81    C     0.78251   0.00102   0.31250   0.00000  Uiso   1.00
C82    C     0.80031   0.00103   0.32292   0.00000  Uiso   1.00
C83    C     0.80028   0.00106   0.34377   0.00000  Uiso   1.00
C84    C     0.78245   0.00109   0.35412   0.00000  Uiso   1.00
C85    C     0.68984   0.00115   0.21982   0.00000  Uiso   1.00
C86    C     0.67942   0.00117   0.20202   0.00000  Uiso   1.00
C87    C     0.65858   0.00115   0.20205   0.00000  Uiso   1.00
C88    C     0.64822   0.00112   0.21988   0.00000  Uiso   1.00
C89    C     0.55573   0.00070   0.31238   0.00000  Uiso   1.00
C90    C     0.53808   0.00059   0.32303   0.00000  Uiso   1.00
C91    C     0.53808   0.00056   0.34332   0.00000  Uiso   1.00
C92    C     0.55573   0.00064   0.35398   0.00000  Uiso   1.00
C93    C     0.68994   0.00146   0.44661   0.00000  Uiso   1.00
C94    C     0.67929   0.00156   0.46425   0.00000  Uiso   1.00
C95    C     0.65900   0.00155   0.46425   0.00000  Uiso   1.00
C96    C     0.64834   0.00143   0.44661   0.00000  Uiso   1.00
H25    H     0.78278   0.00099   0.29650   0.00000  Uiso   1.00
O9     O     0.81827   0.00100   0.31284   0.00000  Uiso   1.00
O10    O     0.81820   0.00107   0.35393   0.00000  Uiso   1.00
H26    H     0.78268   0.00111   0.37012   0.00000  Uiso   1.00
H27    H     0.70584   0.00116   0.21956   0.00000  Uiso   1.00
O11    O     0.68951   0.00120   0.18406   0.00000  Uiso   1.00
O12    O     0.64842   0.00116   0.18413   0.00000  Uiso   1.00
H28    H     0.63222   0.00111   0.21965   0.00000  Uiso   1.00
H29    H     0.55533   0.00072   0.29639   0.00000  Uiso   1.00
O13    O     0.51978   0.00051   0.31404   0.00000  Uiso   1.00
O14    O     0.51977   0.00044   0.35229   0.00000  Uiso   1.00
H30    H     0.55533   0.00061   0.36997   0.00000  Uiso   1.00
H31    H     0.70593   0.00148   0.44700   0.00000  Uiso   1.00
O15    O     0.68828   0.00167   0.48256   0.00000  Uiso   1.00
O16    O     0.65003   0.00166   0.48256   0.00000  Uiso   1.00
H32    H     0.63235   0.00142   0.44700   0.00000  Uiso   1.00
Ni2    Ni    0.66912   0.00105   0.33321   0.00000  Uiso   1.00
C97    C     0.00099   0.74644   0.31228   0.00000  Uiso   1.00
C98    C     0.00100   0.76448   0.32272   0.00000  Uiso   1.00
C99    C     0.00104   0.76445   0.34386   0.00000  Uiso   1.00
C100   C     0.00105   0.74640   0.35424   0.00000  Uiso   1.00
C101   C     0.00103   0.72899   0.34326   0.00000  Uiso   1.00
C102   C     0.00101   0.72900   0.32321   0.00000  Uiso   1.00
C103   C     0.00099   0.70950   0.31746   0.00000  Uiso   1.00
N17    N     0.00101   0.69708   0.33322   0.00000  Uiso   1.00
C104   C     0.00104   0.70949   0.34899   0.00000  Uiso   1.00
N18    N     0.00107   0.70378   0.36790   0.00000  Uiso   1.00
C105   C     0.00105   0.68487   0.37361   0.00000  Uiso   1.00
N19    N     0.00099   0.66911   0.36119   0.00000  Uiso   1.00
C106   C     0.00099   0.65334   0.37360   0.00000  Uiso   1.00
C107   C     0.00106   0.65908   0.39310   0.00000  Uiso   1.00
C108   C     0.00110   0.67914   0.39310   0.00000  Uiso   1.00
N20    N     0.00093   0.64113   0.33321   0.00000  Uiso   1.00
C109   C     0.00088   0.62872   0.34897   0.00000  Uiso   1.00
N21    N     0.00092   0.63443   0.36788   0.00000  Uiso   1.00
C110   C     0.00082   0.60922   0.34324   0.00000  Uiso   1.00
C111   C     0.00084   0.60922   0.32318   0.00000  Uiso   1.00
C112   C     0.00091   0.62871   0.31745   0.00000  Uiso   1.00
C113   C     0.00120   0.69011   0.41052   0.00000  Uiso   1.00
C114   C     0.00127   0.67971   0.42856   0.00000  Uiso   1.00
C115   C     0.00124   0.65853   0.42856   0.00000  Uiso   1.00
C116   C     0.00112   0.64811   0.41052   0.00000  Uiso   1.00
C117   C     0.00079   0.59180   0.31220   0.00000  Uiso   1.00
C118   C     0.00069   0.57376   0.32261   0.00000  Uiso   1.00
C119   C     0.00065   0.57376   0.34378   0.00000  Uiso   1.00
C120   C     0.00073   0.59180   0.35420   0.00000  Uiso   1.00
N22    N     0.00097   0.66910   0.30524   0.00000  Uiso   1.00
C121   C     0.00098   0.65334   0.29283   0.00000  Uiso   1.00
N23    N     0.00094   0.63443   0.29854   0.00000  Uiso   1.00
C122   C     0.00100   0.65906   0.27333   0.00000  Uiso   1.00
C123   C     0.00101   0.67911   0.27332   0.00000  Uiso   1.00
C124   C     0.00099   0.68487   0.29283   0.00000  Uiso   1.00
C125   C     0.00104   0.69005   0.25589   0.00000  Uiso   1.00
C126   C     0.00107   0.67961   0.23784   0.00000  Uiso   1.00
C127   C     0.00106   0.65847   0.23787   0.00000  Uiso   1.00
C128   C     0.00102   0.64808   0.25592   0.00000  Uiso   1.00
N24    N     0.00099   0.70378   0.29854   0.00000  Uiso   1.00
H33    H     0.00096   0.74602   0.29629   0.00000  Uiso   1.00
H34    H     0.00108   0.74595   0.37023   0.00000  Uiso   1.00
H35    H     0.00123   0.70610   0.41010   0.00000  Uiso   1.00
H36    H     0.00110   0.63212   0.41009   0.00000  Uiso   1.00
H37    H     0.00081   0.59223   0.29621   0.00000  Uiso   1.00
H38    H     0.00070   0.59223   0.37019   0.00000  Uiso   1.00
H39    H     0.00105   0.70604   0.25630   0.00000  Uiso   1.00
H40    H     0.00102   0.63209   0.25637   0.00000  Uiso   1.00
C129   C     0.00111   0.68982   0.21983   0.00000  Uiso   1.00
C130   C     0.00113   0.67940   0.20203   0.00000  Uiso   1.00
C131   C     0.00111   0.65855   0.20206   0.00000  Uiso   1.00
C132   C     0.00108   0.64820   0.21989   0.00000  Uiso   1.00
C133   C     0.00099   0.78249   0.31251   0.00000  Uiso   1.00
C134   C     0.00100   0.80029   0.32293   0.00000  Uiso   1.00
C135   C     0.00103   0.80026   0.34378   0.00000  Uiso   1.00
C136   C     0.00105   0.78243   0.35413   0.00000  Uiso   1.00
C137   C     0.00139   0.68992   0.44662   0.00000  Uiso   1.00
C138   C     0.00148   0.67927   0.46426   0.00000  Uiso   1.00
C139   C     0.00146   0.65898   0.46426   0.00000  Uiso   1.00
C140   C     0.00134   0.64832   0.44661   0.00000  Uiso   1.00
C141   C     0.00061   0.55571   0.31238   0.00000  Uiso   1.00
C142   C     0.00050   0.53806   0.32304   0.00000  Uiso   1.00
C143   C     0.00045   0.53806   0.34332   0.00000  Uiso   1.00
C144   C     0.00053   0.55571   0.35399   0.00000  Uiso   1.00
H41    H     0.00111   0.70582   0.21956   0.00000  Uiso   1.00
O17    O     0.00116   0.68948   0.18407   0.00000  Uiso   1.00
O18    O     0.00113   0.64839   0.18414   0.00000  Uiso   1.00
H42    H     0.00107   0.63220   0.21966   0.00000  Uiso   1.00
H43    H     0.00096   0.78276   0.29651   0.00000  Uiso   1.00
O19    O     0.00098   0.81825   0.31285   0.00000  Uiso   1.00
O20    O     0.00105   0.81818   0.35394   0.00000  Uiso   1.00
H44    H     0.00108   0.78266   0.37013   0.00000  Uiso   1.00
H45    H     0.00141   0.70591   0.44701   0.00000  Uiso   1.00
O21    O     0.00160   0.68826   0.48256   0.00000  Uiso   1.00
O22    O     0.00158   0.65001   0.48256   0.00000  Uiso   1.00
H46    H     0.00132   0.63233   0.44700   0.00000  Uiso   1.00
H47    H     0.00064   0.55531   0.29639   0.00000  Uiso   1.00
O23    O     0.00042   0.51976   0.31405   0.00000  Uiso   1.00
O24    O     0.00032   0.51975   0.35229   0.00000  Uiso   1.00
H48    H     0.00050   0.55531   0.36998   0.00000  Uiso   1.00
Ni3    Ni    0.00098   0.66910   0.33322   0.00000  Uiso   1.00
C145   C     0.31206   0.00072   0.25575   0.00000  Uiso   1.00
C146   C     0.32249   0.00079   0.23771   0.00000  Uiso   1.00
C147   C     0.34363   0.00073   0.23775   0.00000  Uiso   1.00
C148   C     0.35402   0.00061   0.25580   0.00000  Uiso   1.00
C149   C     0.34305   0.00054   0.27321   0.00000  Uiso   1.00
C150   C     0.32299   0.00060   0.27319   0.00000  Uiso   1.00
C151   C     0.31725   0.00053   0.29269   0.00000  Uiso   1.00
N25    N     0.33301   0.00042   0.30512   0.00000  Uiso   1.00
C152   C     0.34878   0.00043   0.29271   0.00000  Uiso   1.00
N26    N     0.36769   0.00036   0.29843   0.00000  Uiso   1.00
C153   C     0.37341   0.00025   0.31734   0.00000  Uiso   1.00
N27    N     0.36100   0.00022   0.33310   0.00000  Uiso   1.00
C154   C     0.37341   0.00014   0.34886   0.00000  Uiso   1.00
C155   C     0.39291   0.00013   0.34313   0.00000  Uiso   1.00
C156   C     0.39291   0.00020   0.32307   0.00000  Uiso   1.00
N28    N     0.33303   0.00021   0.36106   0.00000  Uiso   1.00
C157   C     0.34880   0.00013   0.37348   0.00000  Uiso   1.00
N29    N     0.36770   0.00010   0.36777   0.00000  Uiso   1.00
C158   C     0.34307   0.00010   0.39298   0.00000  Uiso   1.00
C159   C     0.32301   0.00016   0.39298   0.00000  Uiso   1.00
C160   C     0.31727   0.00023   0.37348   0.00000  Uiso   1.00
C161   C     0.41033   0.00023   0.31211   0.00000  Uiso   1.00
C162   C     0.42837   0.00021   0.32253   0.00000  Uiso   1.00
C163   C     0.42837   0.00014   0.34371   0.00000  Uiso   1.00
C164   C     0.41033   0.00010   0.35411   0.00000  Uiso   1.00
C165   C     0.31205   0.00018   0.41040   0.00000  Uiso   1.00
C166   C     0.32247   0.00015   0.42844   0.00000  Uiso   1.00
C167   C     0.34364   0.00008   0.42843   0.00000  Uiso   1.00
C168   C     0.35405   0.00005   0.41039   0.00000  Uiso   1.00
N30    N     0.30505   0.00041   0.33308   0.00000  Uiso   1.00
C169   C     0.29264   0.00041   0.34885   0.00000  Uiso   1.00
N31    N     0.29836   0.00033   0.36776   0.00000  Uiso   1.00
C170   C     0.27315   0.00052   0.34312   0.00000  Uiso   1.00
C171   C     0.27312   0.00058   0.32306   0.00000  Uiso   1.00
C172   C     0.29262   0.00052   0.31732   0.00000  Uiso   1.00
C173   C     0.25568   0.00071   0.31213   0.00000  Uiso   1.00
C174   C     0.23764   0.00077   0.32256   0.00000  Uiso   1.00
C175   C     0.23768   0.00070   0.34370   0.00000  Uiso   1.00
C176   C     0.25574   0.00058   0.35409   0.00000  Uiso   1.00
N32    N     0.29834   0.00057   0.29841   0.00000  Uiso   1.00
H49    H     0.29607   0.00076   0.25616   0.00000  Uiso   1.00
H50    H     0.37001   0.00056   0.25626   0.00000  Uiso   1.00
H51    H     0.40990   0.00029   0.29612   0.00000  Uiso   1.00
H52    H     0.40989   0.00005   0.37010   0.00000  Uiso   1.00
H53    H     0.29606   0.00024   0.40997   0.00000  Uiso   1.00
H54    H     0.37004   0.00001   0.40996   0.00000  Uiso   1.00
H55    H     0.25609   0.00075   0.29614   0.00000  Uiso   1.00
H56    H     0.25620   0.00053   0.37008   0.00000  Uiso   1.00
C177   C     0.21962   0.00088   0.31235   0.00000  Uiso   1.00
C178   C     0.20183   0.00093   0.32277   0.00000  Uiso   1.00
C179   C     0.20187   0.00088   0.34361   0.00000  Uiso   1.00
C180   C     0.21970   0.00077   0.35397   0.00000  Uiso   1.00
C181   C     0.31227   0.00090   0.21969   0.00000  Uiso   1.00
C182   C     0.32269   0.00095   0.20189   0.00000  Uiso   1.00
C183   C     0.34354   0.00091   0.20194   0.00000  Uiso   1.00
C184   C     0.35390   0.00080   0.21977   0.00000  Uiso   1.00
C185   C     0.44642   0.00026   0.31233   0.00000  Uiso   1.00
C186   C     0.46407   0.00027   0.32299   0.00000  Uiso   1.00
C187   C     0.46406   0.00021   0.34328   0.00000  Uiso   1.00
C188   C     0.44642   0.00015   0.35393   0.00000  Uiso   1.00
C189   C     0.31226   0.00019   0.44649   0.00000  Uiso   1.00
C190   C     0.32293   0.00018   0.46413   0.00000  Uiso   1.00
C191   C     0.34322   0.00013   0.46413   0.00000  Uiso   1.00
C192   C     0.35387   0.00007   0.44648   0.00000  Uiso   1.00
H57    H     0.21935   0.00092   0.29635   0.00000  Uiso   1.00
O25    O     0.18386   0.00101   0.31268   0.00000  Uiso   1.00
O26    O     0.18395   0.00092   0.35377   0.00000  Uiso   1.00
H58    H     0.21949   0.00073   0.36997   0.00000  Uiso   1.00
H59    H     0.29628   0.00093   0.21942   0.00000  Uiso   1.00
O27    O     0.31260   0.00104   0.18393   0.00000  Uiso   1.00
O28    O     0.35369   0.00096   0.18402   0.00000  Uiso   1.00
H60    H     0.36989   0.00076   0.21955   0.00000  Uiso   1.00
H61    H     0.44682   0.00031   0.29634   0.00000  Uiso   1.00
O29    O     0.48237   0.00033   0.31402   0.00000  Uiso   1.00
O30    O     0.48237   0.00025   0.35227   0.00000  Uiso   1.00
H62    H     0.44681   0.00010   0.36992   0.00000  Uiso   1.00
H63    H     0.29627   0.00024   0.44689   0.00000  Uiso   1.00
O31    O     0.31396   0.00024   0.48244   0.00000  Uiso   1.00
O32    O     0.35221   0.00015   0.48244   0.00000  Uiso   1.00
H64    H     0.36986   0.00003   0.44688   0.00000  Uiso   1.00
Ni4    Ni    0.33302   0.00031   0.33309   0.00000  Uiso   1.00
C193   C     0.00155   0.69015   0.74666   0.00000  Uiso   1.00
C194   C     0.00150   0.67971   0.76470   0.00000  Uiso   1.00
C195   C     0.00157   0.65858   0.76466   0.00000  Uiso   1.00
C196   C     0.00169   0.64819   0.74660   0.00000  Uiso   1.00
C197   C     0.00173   0.65916   0.72919   0.00000  Uiso   1.00
C198   C     0.00166   0.67922   0.72922   0.00000  Uiso   1.00
C199   C     0.00171   0.68496   0.70972   0.00000  Uiso   1.00
N33    N     0.00181   0.66920   0.69729   0.00000  Uiso   1.00
C200   C     0.00182   0.65343   0.70970   0.00000  Uiso   1.00
N34    N     0.00189   0.63452   0.70398   0.00000  Uiso   1.00
C201   C     0.00196   0.62880   0.68507   0.00000  Uiso   1.00
N35    N     0.00196   0.64122   0.66931   0.00000  Uiso   1.00
C202   C     0.00199   0.62880   0.65354   0.00000  Uiso   1.00
C203   C     0.00201   0.60931   0.65927   0.00000  Uiso   1.00
C204   C     0.00200   0.60931   0.67933   0.00000  Uiso   1.00
N36    N     0.00195   0.66919   0.64134   0.00000  Uiso   1.00
C205   C     0.00198   0.65342   0.62892   0.00000  Uiso   1.00
N37    N     0.00200   0.63452   0.63463   0.00000  Uiso   1.00
C206   C     0.00200   0.65915   0.60943   0.00000  Uiso   1.00
C207   C     0.00197   0.67921   0.60943   0.00000  Uiso   1.00
C208   C     0.00194   0.68495   0.62893   0.00000  Uiso   1.00
C209   C     0.00198   0.59188   0.69029   0.00000  Uiso   1.00
C210   C     0.00197   0.57385   0.67987   0.00000  Uiso   1.00
C211   C     0.00198   0.57385   0.65869   0.00000  Uiso   1.00
C212   C     0.00201   0.59189   0.64829   0.00000  Uiso   1.00
C213   C     0.00195   0.69017   0.59201   0.00000  Uiso   1.00
C214   C     0.00195   0.67976   0.57397   0.00000  Uiso   1.00
C215   C     0.00196   0.65858   0.57397   0.00000  Uiso   1.00
C216   C     0.00200   0.64818   0.59201   0.00000  Uiso   1.00
N38    N     0.00180   0.69717   0.66933   0.00000  Uiso   1.00
C217   C     0.00180   0.70958   0.65356   0.00000  Uiso   1.00
N39    N     0.00186   0.70386   0.63465   0.00000  Uiso   1.00
C218   C     0.00170   0.72907   0.65930   0.00000  Uiso   1.00
C219   C     0.00164   0.72909   0.67935   0.00000  Uiso   1.00
C220   C     0.00170   0.70959   0.68509   0.00000  Uiso   1.00
C221   C     0.00152   0.74653   0.69029   0.00000  Uiso   1.00
C222   C     0.00146   0.76457   0.67986   0.00000  Uiso   1.00
C223   C     0.00151   0.76454   0.65872   0.00000  Uiso   1.00
C224   C     0.00164   0.74648   0.64833   0.00000  Uiso   1.00
N40    N     0.00166   0.70388   0.70401   0.00000  Uiso   1.00
H65    H     0.00149   0.70614   0.74625   0.00000  Uiso   1.00
H66    H     0.00174   0.63220   0.74614   0.00000  Uiso   1.00
H67    H     0.00197   0.59231   0.70628   0.00000  Uiso   1.00
H68    H     0.00201   0.59232   0.63230   0.00000  Uiso   1.00
H69    H     0.00193   0.70616   0.59244   0.00000  Uiso   1.00
H70    H     0.00200   0.63219   0.59244   0.00000  Uiso   1.00
H71    H     0.00147   0.74612   0.70628   0.00000  Uiso   1.00
H72    H     0.00168   0.74602   0.63234   0.00000  Uiso   1.00
C225   C     0.00135   0.78259   0.69007   0.00000  Uiso   1.00
C226   C     0.00129   0.80039   0.67966   0.00000  Uiso   1.00
C227   C     0.00134   0.80035   0.65881   0.00000  Uiso   1.00
C228   C     0.00145   0.78251   0.64845   0.00000  Uiso   1.00
C229   C     0.00139   0.68993   0.78272   0.00000  Uiso   1.00
C230   C     0.00135   0.67951   0.80051   0.00000  Uiso   1.00
C231   C     0.00140   0.65866   0.80047   0.00000  Uiso   1.00
C232   C     0.00151   0.64831   0.78264   0.00000  Uiso   1.00
C233   C     0.00194   0.55579   0.69007   0.00000  Uiso   1.00
C234   C     0.00190   0.53815   0.67940   0.00000  Uiso   1.00
C235   C     0.00189   0.53815   0.65911   0.00000  Uiso   1.00
C236   C     0.00194   0.55580   0.64846   0.00000  Uiso   1.00
C237   C     0.00191   0.68996   0.55592   0.00000  Uiso   1.00
C238   C     0.00187   0.67930   0.53828   0.00000  Uiso   1.00
C239   C     0.00188   0.65901   0.53828   0.00000  Uiso   1.00
C240   C     0.00193   0.64836   0.55592   0.00000  Uiso   1.00
H73    H     0.00131   0.78286   0.70607   0.00000  Uiso   1.00
O33    O     0.00121   0.81835   0.68975   0.00000  Uiso   1.00
O34    O     0.00129   0.81826   0.64866   0.00000  Uiso   1.00
H74    H     0.00149   0.78273   0.63246   0.00000  Uiso   1.00
H75    H     0.00135   0.70592   0.78299   0.00000  Uiso   1.00
O35    O     0.00126   0.68960   0.81848   0.00000  Uiso   1.00
O36    O     0.00136   0.64851   0.81839   0.00000  Uiso   1.00
H76    H     0.00156   0.63231   0.78285   0.00000  Uiso   1.00
H77    H     0.00193   0.55539   0.70606   0.00000  Uiso   1.00
O37    O     0.00184   0.51984   0.68837   0.00000  Uiso   1.00
O38    O     0.00182   0.51985   0.65012   0.00000  Uiso   1.00
H78    H     0.00194   0.55541   0.63247   0.00000  Uiso   1.00
H79    H     0.00190   0.70595   0.55552   0.00000  Uiso   1.00
O39    O     0.00182   0.68827   0.51997   0.00000  Uiso   1.00
O40    O     0.00181   0.65002   0.51997   0.00000  Uiso   1.00
H80    H     0.00193   0.63237   0.55553   0.00000  Uiso   1.00
Ni5    Ni    0.00188   0.66919   0.66932   0.00000  Uiso   1.00
C241   C     0.31218   0.00099   0.74652   0.00000  Uiso   1.00
C242   C     0.32262   0.00099   0.76456   0.00000  Uiso   1.00
C243   C     0.34375   0.00102   0.76454   0.00000  Uiso   1.00
C244   C     0.35414   0.00104   0.74648   0.00000  Uiso   1.00
C245   C     0.34317   0.00103   0.72907   0.00000  Uiso   1.00
C246   C     0.32312   0.00101   0.72908   0.00000  Uiso   1.00
C247   C     0.31737   0.00100   0.70958   0.00000  Uiso   1.00
N41    N     0.33313   0.00102   0.69716   0.00000  Uiso   1.00
C248   C     0.34890   0.00104   0.70958   0.00000  Uiso   1.00
N42    N     0.36780   0.00107   0.70387   0.00000  Uiso   1.00
C249   C     0.37352   0.00106   0.68496   0.00000  Uiso   1.00
N43    N     0.36110   0.00100   0.66919   0.00000  Uiso   1.00
C250   C     0.37352   0.00100   0.65343   0.00000  Uiso   1.00
C251   C     0.39302   0.00107   0.65917   0.00000  Uiso   1.00
C252   C     0.39302   0.00110   0.67923   0.00000  Uiso   1.00
N44    N     0.33313   0.00095   0.64122   0.00000  Uiso   1.00
C253   C     0.34889   0.00090   0.62880   0.00000  Uiso   1.00
N45    N     0.36780   0.00094   0.63452   0.00000  Uiso   1.00
C254   C     0.34316   0.00084   0.60930   0.00000  Uiso   1.00
C255   C     0.32310   0.00086   0.60930   0.00000  Uiso   1.00
C256   C     0.31737   0.00092   0.62880   0.00000  Uiso   1.00
C257   C     0.41043   0.00120   0.69021   0.00000  Uiso   1.00
C258   C     0.42847   0.00128   0.67980   0.00000  Uiso   1.00
C259   C     0.42847   0.00125   0.65863   0.00000  Uiso   1.00
C260   C     0.41043   0.00113   0.64821   0.00000  Uiso   1.00
C261   C     0.31212   0.00079   0.59188   0.00000  Uiso   1.00
C262   C     0.32253   0.00070   0.57384   0.00000  Uiso   1.00
C263   C     0.34371   0.00067   0.57385   0.00000  Uiso   1.00
C264   C     0.35412   0.00074   0.59189   0.00000  Uiso   1.00
N46    N     0.30516   0.00099   0.66919   0.00000  Uiso   1.00
C265   C     0.29274   0.00099   0.65342   0.00000  Uiso   1.00
N47    N     0.29846   0.00096   0.63451   0.00000  Uiso   1.00
C266   C     0.27325   0.00102   0.65914   0.00000  Uiso   1.00
C267   C     0.27324   0.00103   0.67919   0.00000  Uiso   1.00
C268   C     0.29274   0.00101   0.68495   0.00000  Uiso   1.00
C269   C     0.25580   0.00107   0.69012   0.00000  Uiso   1.00
C270   C     0.23776   0.00110   0.67968   0.00000  Uiso   1.00
C271   C     0.23778   0.00108   0.65855   0.00000  Uiso   1.00
C272   C     0.25584   0.00105   0.64816   0.00000  Uiso   1.00
N48    N     0.29845   0.00101   0.70386   0.00000  Uiso   1.00
H81    H     0.29619   0.00097   0.74610   0.00000  Uiso   1.00
H82    H     0.37013   0.00105   0.74604   0.00000  Uiso   1.00
H83    H     0.41000   0.00123   0.70620   0.00000  Uiso   1.00
H84    H     0.41000   0.00112   0.63222   0.00000  Uiso   1.00
H85    H     0.29613   0.00081   0.59231   0.00000  Uiso   1.00
H86    H     0.37011   0.00072   0.59232   0.00000  Uiso   1.00
H87    H     0.25621   0.00108   0.70611   0.00000  Uiso   1.00
H88    H     0.25629   0.00104   0.63217   0.00000  Uiso   1.00
C273   C     0.21974   0.00113   0.68989   0.00000  Uiso   1.00
C274   C     0.20194   0.00115   0.67947   0.00000  Uiso   1.00
C275   C     0.20197   0.00114   0.65862   0.00000  Uiso   1.00
C276   C     0.21980   0.00111   0.64827   0.00000  Uiso   1.00
C277   C     0.31241   0.00097   0.78257   0.00000  Uiso   1.00
C278   C     0.32282   0.00098   0.80038   0.00000  Uiso   1.00
C279   C     0.34367   0.00100   0.80035   0.00000  Uiso   1.00
C280   C     0.35403   0.00102   0.78252   0.00000  Uiso   1.00
C281   C     0.44653   0.00140   0.69002   0.00000  Uiso   1.00
C282   C     0.46417   0.00150   0.67937   0.00000  Uiso   1.00
C283   C     0.46417   0.00149   0.65908   0.00000  Uiso   1.00
C284   C     0.44653   0.00136   0.64842   0.00000  Uiso   1.00
C285   C     0.31231   0.00062   0.55579   0.00000  Uiso   1.00
C286   C     0.32296   0.00050   0.53815   0.00000  Uiso   1.00
C287   C     0.34325   0.00046   0.53815   0.00000  Uiso   1.00
C288   C     0.35392   0.00055   0.55579   0.00000  Uiso   1.00
H89    H     0.21947   0.00114   0.70589   0.00000  Uiso   1.00
O41    O     0.18398   0.00118   0.68955   0.00000  Uiso   1.00
O42    O     0.18405   0.00115   0.64846   0.00000  Uiso   1.00
H90    H     0.21958   0.00109   0.63227   0.00000  Uiso   1.00
H91    H     0.29641   0.00095   0.78284   0.00000  Uiso   1.00
O43    O     0.31274   0.00096   0.81834   0.00000  Uiso   1.00
O44    O     0.35383   0.00101   0.81827   0.00000  Uiso   1.00
H92    H     0.37002   0.00104   0.78275   0.00000  Uiso   1.00
H93    H     0.44692   0.00142   0.70601   0.00000  Uiso   1.00
O45    O     0.48248   0.00163   0.68836   0.00000  Uiso   1.00
O46    O     0.48248   0.00161   0.65011   0.00000  Uiso   1.00
H94    H     0.44692   0.00135   0.63243   0.00000  Uiso   1.00
H95    H     0.29632   0.00064   0.55540   0.00000  Uiso   1.00
O47    O     0.31398   0.00042   0.51984   0.00000  Uiso   1.00
O48    O     0.35222   0.00033   0.51984   0.00000  Uiso   1.00
H96    H     0.36991   0.00052   0.55540   0.00000  Uiso   1.00
Ni6    Ni    0.33313   0.00099   0.66919   0.00000  Uiso   1.00
C289   C     0.00111   0.25576   0.69011   0.00000  Uiso   1.00
C290   C     0.00114   0.23772   0.67967   0.00000  Uiso   1.00
C291   C     0.00113   0.23774   0.65854   0.00000  Uiso   1.00
C292   C     0.00110   0.25580   0.64815   0.00000  Uiso   1.00
C293   C     0.00107   0.27321   0.65913   0.00000  Uiso   1.00
C294   C     0.00108   0.27320   0.67918   0.00000  Uiso   1.00
C295   C     0.00105   0.29270   0.68494   0.00000  Uiso   1.00
N49    N     0.00102   0.30512   0.66918   0.00000  Uiso   1.00
C296   C     0.00104   0.29271   0.65340   0.00000  Uiso   1.00
N50    N     0.00100   0.29842   0.63450   0.00000  Uiso   1.00
C297   C     0.00096   0.31733   0.62879   0.00000  Uiso   1.00
N51    N     0.00097   0.33309   0.64121   0.00000  Uiso   1.00
C298   C     0.00092   0.34885   0.62879   0.00000  Uiso   1.00
C299   C     0.00085   0.34312   0.60929   0.00000  Uiso   1.00
C300   C     0.00089   0.32306   0.60929   0.00000  Uiso   1.00
N52    N     0.00102   0.36107   0.66918   0.00000  Uiso   1.00
C301   C     0.00101   0.37348   0.65342   0.00000  Uiso   1.00
N53    N     0.00095   0.36776   0.63451   0.00000  Uiso   1.00
C302   C     0.00107   0.39298   0.65916   0.00000  Uiso   1.00
C303   C     0.00111   0.39298   0.67922   0.00000  Uiso   1.00
C304   C     0.00108   0.37348   0.68495   0.00000  Uiso   1.00
C305   C     0.00083   0.31209   0.59187   0.00000  Uiso   1.00
C306   C     0.00073   0.32249   0.57383   0.00000  Uiso   1.00
C307   C     0.00068   0.34367   0.57384   0.00000  Uiso   1.00
C308   C     0.00076   0.35408   0.59188   0.00000  Uiso   1.00
C309   C     0.00121   0.41040   0.69020   0.00000  Uiso   1.00
C310   C     0.00128   0.42844   0.67979   0.00000  Uiso   1.00
C311   C     0.00124   0.42844   0.65861   0.00000  Uiso   1.00
C312   C     0.00113   0.41040   0.64820   0.00000  Uiso   1.00
N54    N     0.00105   0.33309   0.69715   0.00000  Uiso   1.00
C313   C     0.00107   0.34886   0.70957   0.00000  Uiso   1.00
N55    N     0.00109   0.36777   0.70386   0.00000  Uiso   1.00
C314   C     0.00106   0.34313   0.72906   0.00000  Uiso   1.00
C315   C     0.00104   0.32308   0.72907   0.00000  Uiso   1.00
C316   C     0.00104   0.31733   0.70957   0.00000  Uiso   1.00
C317   C     0.00103   0.31215   0.74651   0.00000  Uiso   1.00
C318   C     0.00103   0.32259   0.76455   0.00000  Uiso   1.00
C319   C     0.00106   0.34372   0.76453   0.00000  Uiso   1.00
C320   C     0.00107   0.35411   0.74647   0.00000  Uiso   1.00
N56    N     0.00104   0.29842   0.70385   0.00000  Uiso   1.00
H97    H     0.00112   0.25618   0.70610   0.00000  Uiso   1.00
H98    H     0.00109   0.25625   0.63216   0.00000  Uiso   1.00
H99    H     0.00086   0.29610   0.59230   0.00000  Uiso   1.00
H100   H     0.00072   0.37007   0.59231   0.00000  Uiso   1.00
H101   H     0.00125   0.40997   0.70619   0.00000  Uiso   1.00
H102   H     0.00111   0.40997   0.63221   0.00000  Uiso   1.00
H103   H     0.00101   0.29616   0.74609   0.00000  Uiso   1.00
H104   H     0.00109   0.37010   0.74602   0.00000  Uiso   1.00
C321   C     0.00101   0.31237   0.78257   0.00000  Uiso   1.00
C322   C     0.00102   0.32279   0.80037   0.00000  Uiso   1.00
C323   C     0.00105   0.34364   0.80034   0.00000  Uiso   1.00
C324   C     0.00106   0.35400   0.78251   0.00000  Uiso   1.00
C325   C     0.00118   0.21970   0.68988   0.00000  Uiso   1.00
C326   C     0.00120   0.20190   0.67946   0.00000  Uiso   1.00
C327   C     0.00119   0.20193   0.65861   0.00000  Uiso   1.00
C328   C     0.00116   0.21976   0.64826   0.00000  Uiso   1.00
C329   C     0.00065   0.31227   0.55578   0.00000  Uiso   1.00
C330   C     0.00053   0.32293   0.53814   0.00000  Uiso   1.00
C331   C     0.00048   0.34322   0.53814   0.00000  Uiso   1.00
C332   C     0.00056   0.35388   0.55578   0.00000  Uiso   1.00
C333   C     0.00140   0.44649   0.69001   0.00000  Uiso   1.00
C334   C     0.00149   0.46413   0.67936   0.00000  Uiso   1.00
C335   C     0.00147   0.46413   0.65907   0.00000  Uiso   1.00
C336   C     0.00134   0.44649   0.64841   0.00000  Uiso   1.00
H105   H     0.00099   0.29638   0.78283   0.00000  Uiso   1.00
O49    O     0.00100   0.31271   0.81833   0.00000  Uiso   1.00
O50    O     0.00106   0.35380   0.81826   0.00000  Uiso   1.00
H106   H     0.00108   0.36999   0.78273   0.00000  Uiso   1.00
H107   H     0.00119   0.21943   0.70588   0.00000  Uiso   1.00
O51    O     0.00123   0.18394   0.68954   0.00000  Uiso   1.00
O52    O     0.00120   0.18401   0.64845   0.00000  Uiso   1.00
H108   H     0.00115   0.21954   0.63226   0.00000  Uiso   1.00
H109   H     0.00069   0.29628   0.55538   0.00000  Uiso   1.00
O53    O     0.00045   0.31394   0.51983   0.00000  Uiso   1.00
O54    O     0.00034   0.35219   0.51983   0.00000  Uiso   1.00
H110   H     0.00051   0.36987   0.55539   0.00000  Uiso   1.00
H111   H     0.00142   0.44688   0.70600   0.00000  Uiso   1.00
O55    O     0.00161   0.48244   0.68835   0.00000  Uiso   1.00
O56    O     0.00158   0.48244   0.65010   0.00000  Uiso   1.00
H112   H     0.00132   0.44689   0.63242   0.00000  Uiso   1.00
Ni7    Ni    0.00102   0.33309   0.66918   0.00000  Uiso   1.00
C337   C     0.69020   0.00151   0.74665   0.00000  Uiso   1.00
C338   C     0.67976   0.00145   0.76469   0.00000  Uiso   1.00
C339   C     0.65863   0.00152   0.76465   0.00000  Uiso   1.00
C340   C     0.64824   0.00164   0.74660   0.00000  Uiso   1.00
C341   C     0.65921   0.00170   0.72919   0.00000  Uiso   1.00
C342   C     0.67926   0.00163   0.72921   0.00000  Uiso   1.00
C343   C     0.68500   0.00169   0.70971   0.00000  Uiso   1.00
N57    N     0.66924   0.00179   0.69728   0.00000  Uiso   1.00
C344   C     0.65347   0.00180   0.70969   0.00000  Uiso   1.00
N58    N     0.63456   0.00188   0.70397   0.00000  Uiso   1.00
C345   C     0.62884   0.00195   0.68507   0.00000  Uiso   1.00
N59    N     0.64126   0.00196   0.66931   0.00000  Uiso   1.00
C346   C     0.62884   0.00200   0.65354   0.00000  Uiso   1.00
C347   C     0.60934   0.00202   0.65927   0.00000  Uiso   1.00
C348   C     0.60934   0.00200   0.67933   0.00000  Uiso   1.00
N60    N     0.66922   0.00195   0.64134   0.00000  Uiso   1.00
C349   C     0.65346   0.00200   0.62892   0.00000  Uiso   1.00
N61    N     0.63455   0.00202   0.63463   0.00000  Uiso   1.00
C350   C     0.65918   0.00202   0.60942   0.00000  Uiso   1.00
C351   C     0.67924   0.00198   0.60942   0.00000  Uiso   1.00
C352   C     0.68498   0.00194   0.62892   0.00000  Uiso   1.00
C353   C     0.59192   0.00198   0.69029   0.00000  Uiso   1.00
C354   C     0.57388   0.00199   0.67987   0.00000  Uiso   1.00
C355   C     0.57389   0.00201   0.65869   0.00000  Uiso   1.00
C356   C     0.59193   0.00203   0.64829   0.00000  Uiso   1.00
C357   C     0.69020   0.00197   0.59200   0.00000  Uiso   1.00
C358   C     0.67978   0.00198   0.57396   0.00000  Uiso   1.00
C359   C     0.65861   0.00200   0.57397   0.00000  Uiso   1.00
C360   C     0.64821   0.00203   0.59201   0.00000  Uiso   1.00
N62    N     0.69720   0.00179   0.66932   0.00000  Uiso   1.00
C361   C     0.70961   0.00179   0.65355   0.00000  Uiso   1.00
N63    N     0.70389   0.00186   0.63464   0.00000  Uiso   1.00
C362   C     0.72911   0.00168   0.65928   0.00000  Uiso   1.00
C363   C     0.72913   0.00162   0.67934   0.00000  Uiso   1.00
C364   C     0.70963   0.00168   0.68508   0.00000  Uiso   1.00
C365   C     0.74657   0.00150   0.69027   0.00000  Uiso   1.00
C366   C     0.76461   0.00145   0.67984   0.00000  Uiso   1.00
C367   C     0.76457   0.00150   0.65870   0.00000  Uiso   1.00
C368   C     0.74651   0.00163   0.64831   0.00000  Uiso   1.00
N64    N     0.70392   0.00164   0.70399   0.00000  Uiso   1.00
H113   H     0.70619   0.00145   0.74624   0.00000  Uiso   1.00
H114   H     0.63225   0.00169   0.74614   0.00000  Uiso   1.00
H115   H     0.59235   0.00196   0.70628   0.00000  Uiso   1.00
H116   H     0.59236   0.00204   0.63230   0.00000  Uiso   1.00
H117   H     0.70619   0.00194   0.59243   0.00000  Uiso   1.00
H118   H     0.63222   0.00204   0.59244   0.00000  Uiso   1.00
H119   H     0.74616   0.00145   0.70626   0.00000  Uiso   1.00
H120   H     0.74606   0.00167   0.63232   0.00000  Uiso   1.00
C369   C     0.78263   0.00134   0.69005   0.00000  Uiso   1.00
C370   C     0.80043   0.00128   0.67963   0.00000  Uiso   1.00
C371   C     0.80038   0.00133   0.65879   0.00000  Uiso   1.00
C372   C     0.78255   0.00144   0.64843   0.00000  Uiso   1.00
C373   C     0.68998   0.00133   0.78271   0.00000  Uiso   1.00
C374   C     0.67957   0.00128   0.80050   0.00000  Uiso   1.00
C375   C     0.65872   0.00134   0.80046   0.00000  Uiso   1.00
C376   C     0.64836   0.00145   0.78263   0.00000  Uiso   1.00
C377   C     0.55583   0.00195   0.69008   0.00000  Uiso   1.00
C378   C     0.53819   0.00191   0.67941   0.00000  Uiso   1.00
C379   C     0.53819   0.00192   0.65912   0.00000  Uiso   1.00
C380   C     0.55583   0.00198   0.64847   0.00000  Uiso   1.00
C381   C     0.68999   0.00195   0.55591   0.00000  Uiso   1.00
C382   C     0.67932   0.00192   0.53827   0.00000  Uiso   1.00
C383   C     0.65903   0.00193   0.53827   0.00000  Uiso   1.00
C384   C     0.64838   0.00198   0.55592   0.00000  Uiso   1.00
H121   H     0.78290   0.00130   0.70605   0.00000  Uiso   1.00
O57    O     0.81839   0.00120   0.68972   0.00000  Uiso   1.00
O58    O     0.81830   0.00128   0.64863   0.00000  Uiso   1.00
H122   H     0.78277   0.00148   0.63243   0.00000  Uiso   1.00
H123   H     0.70598   0.00129   0.78298   0.00000  Uiso   1.00
O59    O     0.68966   0.00119   0.81847   0.00000  Uiso   1.00
O60    O     0.64856   0.00129   0.81838   0.00000  Uiso   1.00
H124   H     0.63236   0.00150   0.78285   0.00000  Uiso   1.00
H125   H     0.55543   0.00194   0.70606   0.00000  Uiso   1.00
O61    O     0.51988   0.00185   0.68838   0.00000  Uiso   1.00
O62    O     0.51988   0.00186   0.65013   0.00000  Uiso   1.00
H126   H     0.55544   0.00198   0.63248   0.00000  Uiso   1.00
H127   H     0.70598   0.00193   0.55551   0.00000  Uiso   1.00
O63    O     0.68829   0.00187   0.51996   0.00000  Uiso   1.00
O64    O     0.65005   0.00188   0.51996   0.00000  Uiso   1.00
H128   H     0.63239   0.00199   0.55552   0.00000  Uiso   1.00
Ni8    Ni    0.66923   0.00187   0.66931   0.00000  Uiso   1.00
C385   C     0.31206   0.25566   0.00077   0.00000  Uiso   1.00
C386   C     0.32249   0.23762   0.00082   0.00000  Uiso   1.00
C387   C     0.34363   0.23766   0.00076   0.00000  Uiso   1.00
C388   C     0.35402   0.25572   0.00064   0.00000  Uiso   1.00
C389   C     0.34305   0.27312   0.00059   0.00000  Uiso   1.00
C390   C     0.32299   0.27310   0.00065   0.00000  Uiso   1.00
C391   C     0.31725   0.29260   0.00058   0.00000  Uiso   1.00
N65    N     0.33302   0.30503   0.00048   0.00000  Uiso   1.00
C392   C     0.34878   0.29262   0.00048   0.00000  Uiso   1.00
N66    N     0.36769   0.29834   0.00040   0.00000  Uiso   1.00
C393   C     0.37341   0.31725   0.00031   0.00000  Uiso   1.00
N67    N     0.36100   0.33301   0.00030   0.00000  Uiso   1.00
C394   C     0.37342   0.34877   0.00023   0.00000  Uiso   1.00
C395   C     0.39291   0.34304   0.00020   0.00000  Uiso   1.00
C396   C     0.39291   0.32298   0.00025   0.00000  Uiso   1.00
N68    N     0.33303   0.36097   0.00030   0.00000  Uiso   1.00
C397   C     0.34880   0.37339   0.00024   0.00000  Uiso   1.00
N69    N     0.36771   0.36768   0.00020   0.00000  Uiso   1.00
C398   C     0.34307   0.39289   0.00022   0.00000  Uiso   1.00
C399   C     0.32301   0.39289   0.00028   0.00000  Uiso   1.00
C400   C     0.31727   0.37339   0.00033   0.00000  Uiso   1.00
C401   C     0.41033   0.31202   0.00027   0.00000  Uiso   1.00
C402   C     0.42837   0.32244   0.00025   0.00000  Uiso   1.00
C403   C     0.42837   0.34362   0.00020   0.00000  Uiso   1.00
C404   C     0.41033   0.35402   0.00017   0.00000  Uiso   1.00
C405   C     0.31205   0.41031   0.00031   0.00000  Uiso   1.00
C406   C     0.32247   0.42835   0.00029   0.00000  Uiso   1.00
C407   C     0.34365   0.42835   0.00024   0.00000  Uiso   1.00
C408   C     0.35405   0.41031   0.00020   0.00000  Uiso   1.00
N70    N     0.30505   0.33300   0.00049   0.00000  Uiso   1.00
C409   C     0.29265   0.34876   0.00049   0.00000  Uiso   1.00
N71    N     0.29837   0.36767   0.00042   0.00000  Uiso   1.00
C410   C     0.27315   0.34303   0.00060   0.00000  Uiso   1.00
C411   C     0.27313   0.32298   0.00066   0.00000  Uiso   1.00
C412   C     0.29263   0.31723   0.00059   0.00000  Uiso   1.00
C413   C     0.25568   0.31204   0.00077   0.00000  Uiso   1.00
C414   C     0.23765   0.32248   0.00083   0.00000  Uiso   1.00
C415   C     0.23768   0.34362   0.00078   0.00000  Uiso   1.00
C416   C     0.25574   0.35401   0.00066   0.00000  Uiso   1.00
N72    N     0.29834   0.29832   0.00064   0.00000  Uiso   1.00
H129   H     0.29607   0.25607   0.00081   0.00000  Uiso   1.00
H130   H     0.37001   0.25617   0.00060   0.00000  Uiso   1.00
H131   H     0.40990   0.29603   0.00032   0.00000  Uiso   1.00
H132   H     0.40990   0.37001   0.00014   0.00000  Uiso   1.00
H133   H     0.29606   0.40988   0.00036   0.00000  Uiso   1.00
H134   H     0.37004   0.40987   0.00017   0.00000  Uiso   1.00
H135   H     0.25609   0.29605   0.00082   0.00000  Uiso   1.00
H136   H     0.25620   0.37000   0.00061   0.00000  Uiso   1.00
C417   C     0.21963   0.31227   0.00094   0.00000  Uiso   1.00
C418   C     0.20183   0.32269   0.00100   0.00000  Uiso   1.00
C419   C     0.20187   0.34353   0.00095   0.00000  Uiso   1.00
C420   C     0.21971   0.35389   0.00084   0.00000  Uiso   1.00
C421   C     0.31228   0.21961   0.00094   0.00000  Uiso   1.00
C422   C     0.32269   0.20181   0.00099   0.00000  Uiso   1.00
C423   C     0.34354   0.20185   0.00094   0.00000  Uiso   1.00
C424   C     0.35390   0.21968   0.00083   0.00000  Uiso   1.00
C425   C     0.44642   0.31223   0.00028   0.00000  Uiso   1.00
C426   C     0.46407   0.32290   0.00029   0.00000  Uiso   1.00
C427   C     0.46407   0.34319   0.00025   0.00000  Uiso   1.00
C428   C     0.44642   0.35384   0.00020   0.00000  Uiso   1.00
C429   C     0.31227   0.44640   0.00034   0.00000  Uiso   1.00
C430   C     0.32293   0.46404   0.00035   0.00000  Uiso   1.00
C431   C     0.34322   0.46404   0.00031   0.00000  Uiso   1.00
C432   C     0.35387   0.44640   0.00025   0.00000  Uiso   1.00
H137   H     0.21935   0.29627   0.00098   0.00000  Uiso   1.00
O65    O     0.18386   0.31260   0.00108   0.00000  Uiso   1.00
O66    O     0.18396   0.35369   0.00100   0.00000  Uiso   1.00
H138   H     0.21949   0.36989   0.00080   0.00000  Uiso   1.00
H139   H     0.29628   0.21933   0.00098   0.00000  Uiso   1.00
O67    O     0.31260   0.18384   0.00107   0.00000  Uiso   1.00
O68    O     0.35369   0.18393   0.00099   0.00000  Uiso   1.00
H140   H     0.36989   0.21946   0.00079   0.00000  Uiso   1.00
H141   H     0.44682   0.29624   0.00032   0.00000  Uiso   1.00
O69    O     0.48238   0.31393   0.00034   0.00000  Uiso   1.00
O70    O     0.48237   0.35217   0.00028   0.00000  Uiso   1.00
H142   H     0.44681   0.36983   0.00017   0.00000  Uiso   1.00
H143   H     0.29628   0.44680   0.00038   0.00000  Uiso   1.00
O71    O     0.31396   0.48235   0.00042   0.00000  Uiso   1.00
O72    O     0.35221   0.48235   0.00035   0.00000  Uiso   1.00
H144   H     0.36986   0.44679   0.00022   0.00000  Uiso   1.00
Ni9    Ni    0.33302   0.33300   0.00039   0.00000  Uiso   1.00
C433   C     0.31217   0.74643   0.00121   0.00000  Uiso   1.00
C434   C     0.32261   0.76447   0.00120   0.00000  Uiso   1.00
C435   C     0.34375   0.76445   0.00123   0.00000  Uiso   1.00
C436   C     0.35414   0.74640   0.00125   0.00000  Uiso   1.00
C437   C     0.34316   0.72898   0.00125   0.00000  Uiso   1.00
C438   C     0.32311   0.72899   0.00123   0.00000  Uiso   1.00
C439   C     0.31736   0.70949   0.00123   0.00000  Uiso   1.00
N73    N     0.33312   0.69708   0.00124   0.00000  Uiso   1.00
C440   C     0.34889   0.70949   0.00126   0.00000  Uiso   1.00
N74    N     0.36780   0.70378   0.00129   0.00000  Uiso   1.00
C441   C     0.37351   0.68487   0.00129   0.00000  Uiso   1.00
N75    N     0.36110   0.66911   0.00123   0.00000  Uiso   1.00
C442   C     0.37351   0.65335   0.00124   0.00000  Uiso   1.00
C443   C     0.39301   0.65908   0.00131   0.00000  Uiso   1.00
C444   C     0.39301   0.67914   0.00133   0.00000  Uiso   1.00
N76    N     0.33312   0.64113   0.00117   0.00000  Uiso   1.00
C445   C     0.34889   0.62872   0.00113   0.00000  Uiso   1.00
N77    N     0.36780   0.63443   0.00118   0.00000  Uiso   1.00
C446   C     0.34315   0.60922   0.00106   0.00000  Uiso   1.00
C447   C     0.32309   0.60921   0.00107   0.00000  Uiso   1.00
C448   C     0.31736   0.62871   0.00113   0.00000  Uiso   1.00
C449   C     0.41043   0.69012   0.00142   0.00000  Uiso   1.00
C450   C     0.42847   0.67971   0.00149   0.00000  Uiso   1.00
C451   C     0.42847   0.65854   0.00147   0.00000  Uiso   1.00
C452   C     0.41043   0.64812   0.00137   0.00000  Uiso   1.00
C453   C     0.31212   0.59179   0.00099   0.00000  Uiso   1.00
C454   C     0.32253   0.57376   0.00090   0.00000  Uiso   1.00
C455   C     0.34370   0.57376   0.00089   0.00000  Uiso   1.00
C456   C     0.35412   0.59180   0.00098   0.00000  Uiso   1.00
N78    N     0.30515   0.66910   0.00120   0.00000  Uiso   1.00
C457   C     0.29274   0.65333   0.00119   0.00000  Uiso   1.00
N79    N     0.29845   0.63442   0.00115   0.00000  Uiso   1.00
C458   C     0.27324   0.65905   0.00121   0.00000  Uiso   1.00
C459   C     0.27323   0.67911   0.00123   0.00000  Uiso   1.00
C460   C     0.29273   0.68486   0.00122   0.00000  Uiso   1.00
C461   C     0.25579   0.69004   0.00127   0.00000  Uiso   1.00
C462   C     0.23775   0.67959   0.00128   0.00000  Uiso   1.00
C463   C     0.23778   0.65846   0.00126   0.00000  Uiso   1.00
C464   C     0.25583   0.64807   0.00122   0.00000  Uiso   1.00
N80    N     0.29845   0.70377   0.00123   0.00000  Uiso   1.00
H145   H     0.29618   0.74601   0.00119   0.00000  Uiso   1.00
H146   H     0.37013   0.74595   0.00127   0.00000  Uiso   1.00
H147   H     0.41000   0.70611   0.00144   0.00000  Uiso   1.00
H148   H     0.41000   0.63213   0.00136   0.00000  Uiso   1.00
H149   H     0.29613   0.59222   0.00099   0.00000  Uiso   1.00
H150   H     0.37011   0.59223   0.00097   0.00000  Uiso   1.00
H151   H     0.25621   0.70603   0.00128   0.00000  Uiso   1.00
H152   H     0.25628   0.63208   0.00121   0.00000  Uiso   1.00
C465   C     0.21973   0.68981   0.00131   0.00000  Uiso   1.00
C466   C     0.20193   0.67938   0.00132   0.00000  Uiso   1.00
C467   C     0.20197   0.65854   0.00130   0.00000  Uiso   1.00
C468   C     0.21979   0.64818   0.00127   0.00000  Uiso   1.00
C469   C     0.31240   0.78249   0.00117   0.00000  Uiso   1.00
C470   C     0.32282   0.80029   0.00117   0.00000  Uiso   1.00
C471   C     0.34366   0.80026   0.00119   0.00000  Uiso   1.00
C472   C     0.35402   0.78243   0.00122   0.00000  Uiso   1.00
C473   C     0.44652   0.68993   0.00158   0.00000  Uiso   1.00
C474   C     0.46416   0.67928   0.00167   0.00000  Uiso   1.00
C475   C     0.46416   0.65899   0.00166   0.00000  Uiso   1.00
C476   C     0.44652   0.64833   0.00156   0.00000  Uiso   1.00
C477   C     0.31231   0.55570   0.00081   0.00000  Uiso   1.00
C478   C     0.32296   0.53806   0.00070   0.00000  Uiso   1.00
C479   C     0.34325   0.53806   0.00068   0.00000  Uiso   1.00
C480   C     0.35391   0.55571   0.00077   0.00000  Uiso   1.00
H153   H     0.21946   0.70580   0.00133   0.00000  Uiso   1.00
O73    O     0.18397   0.68947   0.00135   0.00000  Uiso   1.00
O74    O     0.18404   0.64838   0.00131   0.00000  Uiso   1.00
H154   H     0.21957   0.63219   0.00125   0.00000  Uiso   1.00
H155   H     0.29640   0.78275   0.00115   0.00000  Uiso   1.00
O75    O     0.31273   0.81825   0.00114   0.00000  Uiso   1.00
O76    O     0.35382   0.81818   0.00119   0.00000  Uiso   1.00
H156   H     0.37002   0.78266   0.00124   0.00000  Uiso   1.00
H157   H     0.44691   0.70592   0.00160   0.00000  Uiso   1.00
O77    O     0.48247   0.68827   0.00177   0.00000  Uiso   1.00
O78    O     0.48247   0.65002   0.00177   0.00000  Uiso   1.00
H158   H     0.44692   0.63234   0.00156   0.00000  Uiso   1.00
H159   H     0.29632   0.55531   0.00082   0.00000  Uiso   1.00
O79    O     0.31398   0.51975   0.00061   0.00000  Uiso   1.00
O80    O     0.35222   0.51975   0.00055   0.00000  Uiso   1.00
H160   H     0.36990   0.55531   0.00075   0.00000  Uiso   1.00
Ni10   Ni    0.33312   0.66910   0.00121   0.00000  Uiso   1.00
C481   C     0.69007   0.25578   0.00120   0.00000  Uiso   1.00
C482   C     0.67963   0.23774   0.00122   0.00000  Uiso   1.00
C483   C     0.65850   0.23776   0.00120   0.00000  Uiso   1.00
C484   C     0.64811   0.25582   0.00117   0.00000  Uiso   1.00
C485   C     0.65908   0.27323   0.00115   0.00000  Uiso   1.00
C486   C     0.67914   0.27322   0.00117   0.00000  Uiso   1.00
C487   C     0.68489   0.29272   0.00115   0.00000  Uiso   1.00
N81    N     0.66913   0.30514   0.00113   0.00000  Uiso   1.00
C488   C     0.65336   0.29272   0.00113   0.00000  Uiso   1.00
N82    N     0.63445   0.29843   0.00109   0.00000  Uiso   1.00
C489   C     0.62874   0.31734   0.00106   0.00000  Uiso   1.00
N83    N     0.64115   0.33311   0.00110   0.00000  Uiso   1.00
C490   C     0.62874   0.34887   0.00106   0.00000  Uiso   1.00
C491   C     0.60924   0.34313   0.00099   0.00000  Uiso   1.00
C492   C     0.60924   0.32307   0.00100   0.00000  Uiso   1.00
N84    N     0.66913   0.36108   0.00116   0.00000  Uiso   1.00
C493   C     0.65336   0.37350   0.00117   0.00000  Uiso   1.00
N85    N     0.63445   0.36778   0.00111   0.00000  Uiso   1.00
C494   C     0.65910   0.39299   0.00124   0.00000  Uiso   1.00
C495   C     0.67916   0.39300   0.00126   0.00000  Uiso   1.00
C496   C     0.68489   0.37350   0.00122   0.00000  Uiso   1.00
C497   C     0.59182   0.31209   0.00092   0.00000  Uiso   1.00
C498   C     0.57378   0.32250   0.00083   0.00000  Uiso   1.00
C499   C     0.57378   0.34368   0.00081   0.00000  Uiso   1.00
C500   C     0.59182   0.35409   0.00090   0.00000  Uiso   1.00
C501   C     0.69013   0.41042   0.00135   0.00000  Uiso   1.00
C502   C     0.67972   0.42846   0.00143   0.00000  Uiso   1.00
C503   C     0.65855   0.42845   0.00141   0.00000  Uiso   1.00
C504   C     0.64813   0.41041   0.00130   0.00000  Uiso   1.00
N86    N     0.69710   0.33311   0.00117   0.00000  Uiso   1.00
C505   C     0.70951   0.34888   0.00119   0.00000  Uiso   1.00
N87    N     0.70380   0.36779   0.00122   0.00000  Uiso   1.00
C506   C     0.72901   0.34316   0.00118   0.00000  Uiso   1.00
C507   C     0.72902   0.32310   0.00116   0.00000  Uiso   1.00
C508   C     0.70952   0.31735   0.00116   0.00000  Uiso   1.00
C509   C     0.74646   0.31217   0.00114   0.00000  Uiso   1.00
C510   C     0.76450   0.32261   0.00114   0.00000  Uiso   1.00
C511   C     0.76447   0.34375   0.00116   0.00000  Uiso   1.00
C512   C     0.74642   0.35414   0.00119   0.00000  Uiso   1.00
N88    N     0.70380   0.29844   0.00116   0.00000  Uiso   1.00
H161   H     0.70606   0.25620   0.00122   0.00000  Uiso   1.00
H162   H     0.63212   0.25626   0.00115   0.00000  Uiso   1.00
H163   H     0.59225   0.29610   0.00093   0.00000  Uiso   1.00
H164   H     0.59225   0.37008   0.00089   0.00000  Uiso   1.00
H165   H     0.70612   0.40999   0.00138   0.00000  Uiso   1.00
H166   H     0.63214   0.40998   0.00129   0.00000  Uiso   1.00
H167   H     0.74604   0.29618   0.00112   0.00000  Uiso   1.00
H168   H     0.74597   0.37013   0.00120   0.00000  Uiso   1.00
C513   C     0.78251   0.31240   0.00112   0.00000  Uiso   1.00
C514   C     0.80032   0.32282   0.00112   0.00000  Uiso   1.00
C515   C     0.80028   0.34367   0.00114   0.00000  Uiso   1.00
C516   C     0.78246   0.35402   0.00116   0.00000  Uiso   1.00
C517   C     0.68985   0.21972   0.00126   0.00000  Uiso   1.00
C518   C     0.67943   0.20192   0.00127   0.00000  Uiso   1.00
C519   C     0.65858   0.20195   0.00125   0.00000  Uiso   1.00
C520   C     0.64823   0.21978   0.00122   0.00000  Uiso   1.00
C521   C     0.55573   0.31228   0.00074   0.00000  Uiso   1.00
C522   C     0.53808   0.32293   0.00063   0.00000  Uiso   1.00
C523   C     0.53808   0.34322   0.00060   0.00000  Uiso   1.00
C524   C     0.55573   0.35388   0.00070   0.00000  Uiso   1.00
C525   C     0.68994   0.44651   0.00153   0.00000  Uiso   1.00
C526   C     0.67929   0.46415   0.00163   0.00000  Uiso   1.00
C527   C     0.65900   0.46415   0.00162   0.00000  Uiso   1.00
C528   C     0.64834   0.44650   0.00151   0.00000  Uiso   1.00
H169   H     0.78278   0.29641   0.00110   0.00000  Uiso   1.00
O81    O     0.81828   0.31274   0.00109   0.00000  Uiso   1.00
O82    O     0.81821   0.35383   0.00114   0.00000  Uiso   1.00
H170   H     0.78268   0.37002   0.00118   0.00000  Uiso   1.00
H171   H     0.70584   0.21946   0.00128   0.00000  Uiso   1.00
O83    O     0.68952   0.18396   0.00130   0.00000  Uiso   1.00
O84    O     0.64842   0.18403   0.00126   0.00000  Uiso   1.00
H172   H     0.63223   0.21955   0.00120   0.00000  Uiso   1.00
H173   H     0.55533   0.29629   0.00075   0.00000  Uiso   1.00
O85    O     0.51978   0.31394   0.00053   0.00000  Uiso   1.00
O86    O     0.51978   0.35219   0.00047   0.00000  Uiso   1.00
H174   H     0.55533   0.36987   0.00068   0.00000  Uiso   1.00
H175   H     0.70593   0.44690   0.00155   0.00000  Uiso   1.00
O87    O     0.68827   0.48246   0.00174   0.00000  Uiso   1.00
O88    O     0.65003   0.48246   0.00174   0.00000  Uiso   1.00
H176   H     0.63235   0.44690   0.00151   0.00000  Uiso   1.00
Ni11   Ni    0.66913   0.33311   0.00114   0.00000  Uiso   1.00
C529   C     0.69019   0.74655   0.00157   0.00000  Uiso   1.00
C530   C     0.67976   0.76459   0.00152   0.00000  Uiso   1.00
C531   C     0.65862   0.76455   0.00158   0.00000  Uiso   1.00
C532   C     0.64823   0.74650   0.00170   0.00000  Uiso   1.00
C533   C     0.65920   0.72909   0.00174   0.00000  Uiso   1.00
C534   C     0.67926   0.72911   0.00168   0.00000  Uiso   1.00
C535   C     0.68500   0.70961   0.00173   0.00000  Uiso   1.00
N89    N     0.66923   0.69718   0.00183   0.00000  Uiso   1.00
C536   C     0.65347   0.70959   0.00184   0.00000  Uiso   1.00
N90    N     0.63456   0.70387   0.00192   0.00000  Uiso   1.00
C537   C     0.62884   0.68497   0.00200   0.00000  Uiso   1.00
N91    N     0.64125   0.66921   0.00200   0.00000  Uiso   1.00
C538   C     0.62883   0.65344   0.00205   0.00000  Uiso   1.00
C539   C     0.60934   0.65917   0.00207   0.00000  Uiso   1.00
C540   C     0.60934   0.67923   0.00204   0.00000  Uiso   1.00
N92    N     0.66922   0.64124   0.00200   0.00000  Uiso   1.00
C541   C     0.65345   0.62882   0.00205   0.00000  Uiso   1.00
N93    N     0.63454   0.63453   0.00207   0.00000  Uiso   1.00
C542   C     0.65918   0.60932   0.00207   0.00000  Uiso   1.00
C543   C     0.67924   0.60932   0.00203   0.00000  Uiso   1.00
C544   C     0.68498   0.62882   0.00199   0.00000  Uiso   1.00
C545   C     0.59192   0.69019   0.00203   0.00000  Uiso   1.00
C546   C     0.57388   0.67977   0.00204   0.00000  Uiso   1.00
C547   C     0.57388   0.65860   0.00207   0.00000  Uiso   1.00
C548   C     0.59192   0.64819   0.00209   0.00000  Uiso   1.00
C549   C     0.69020   0.59190   0.00202   0.00000  Uiso   1.00
C550   C     0.67978   0.57386   0.00203   0.00000  Uiso   1.00
C551   C     0.65860   0.57387   0.00206   0.00000  Uiso   1.00
C552   C     0.64820   0.59191   0.00209   0.00000  Uiso   1.00
N94    N     0.69720   0.66922   0.00183   0.00000  Uiso   1.00
C553   C     0.70961   0.65345   0.00183   0.00000  Uiso   1.00
N95    N     0.70389   0.63454   0.00191   0.00000  Uiso   1.00
C554   C     0.72910   0.65918   0.00173   0.00000  Uiso   1.00
C555   C     0.72912   0.67924   0.00166   0.00000  Uiso   1.00
C556   C     0.70962   0.68498   0.00173   0.00000  Uiso   1.00
C557   C     0.74657   0.69017   0.00154   0.00000  Uiso   1.00
C558   C     0.76460   0.67973   0.00149   0.00000  Uiso   1.00
C559   C     0.76457   0.65860   0.00155   0.00000  Uiso   1.00
C560   C     0.74651   0.64821   0.00167   0.00000  Uiso   1.00
N96    N     0.70391   0.70389   0.00168   0.00000  Uiso   1.00
H177   H     0.70618   0.74614   0.00152   0.00000  Uiso   1.00
H178   H     0.63224   0.74604   0.00175   0.00000  Uiso   1.00
H179   H     0.59235   0.70618   0.00200   0.00000  Uiso   1.00
H180   H     0.59235   0.63220   0.00210   0.00000  Uiso   1.00
H181   H     0.70619   0.59233   0.00199   0.00000  Uiso   1.00
H182   H     0.63221   0.59234   0.00210   0.00000  Uiso   1.00
H183   H     0.74616   0.70616   0.00150   0.00000  Uiso   1.00
H184   H     0.74605   0.63222   0.00172   0.00000  Uiso   1.00
C561   C     0.78262   0.68995   0.00138   0.00000  Uiso   1.00
C562   C     0.80042   0.67953   0.00133   0.00000  Uiso   1.00
C563   C     0.80038   0.65868   0.00138   0.00000  Uiso   1.00
C564   C     0.78254   0.64833   0.00149   0.00000  Uiso   1.00
C565   C     0.68998   0.78261   0.00141   0.00000  Uiso   1.00
C566   C     0.67956   0.80040   0.00137   0.00000  Uiso   1.00
C567   C     0.65871   0.80036   0.00142   0.00000  Uiso   1.00
C568   C     0.64835   0.78253   0.00152   0.00000  Uiso   1.00
C569   C     0.55583   0.68998   0.00201   0.00000  Uiso   1.00
C570   C     0.53818   0.67931   0.00199   0.00000  Uiso   1.00
C571   C     0.53818   0.65902   0.00200   0.00000  Uiso   1.00
C572   C     0.55583   0.64837   0.00205   0.00000  Uiso   1.00
C573   C     0.68999   0.55581   0.00200   0.00000  Uiso   1.00
C574   C     0.67932   0.53817   0.00198   0.00000  Uiso   1.00
C575   C     0.65903   0.53817   0.00200   0.00000  Uiso   1.00
C576   C     0.64838   0.55582   0.00204   0.00000  Uiso   1.00
H185   H     0.78290   0.70594   0.00133   0.00000  Uiso   1.00
O89    O     0.81839   0.68962   0.00124   0.00000  Uiso   1.00
O90    O     0.81829   0.64853   0.00133   0.00000  Uiso   1.00
H186   H     0.78276   0.63233   0.00153   0.00000  Uiso   1.00
H187   H     0.70597   0.78288   0.00137   0.00000  Uiso   1.00
O91    O     0.68965   0.81837   0.00128   0.00000  Uiso   1.00
O92    O     0.64856   0.81828   0.00138   0.00000  Uiso   1.00
H188   H     0.63236   0.78275   0.00157   0.00000  Uiso   1.00
H189   H     0.55543   0.70597   0.00199   0.00000  Uiso   1.00
O93    O     0.51987   0.68828   0.00194   0.00000  Uiso   1.00
O94    O     0.51988   0.65004   0.00196   0.00000  Uiso   1.00
H190   H     0.55544   0.63238   0.00206   0.00000  Uiso   1.00
H191   H     0.70597   0.55541   0.00198   0.00000  Uiso   1.00
O95    O     0.68829   0.51986   0.00193   0.00000  Uiso   1.00
O96    O     0.65004   0.51986   0.00195   0.00000  Uiso   1.00
H192   H     0.63239   0.55542   0.00206   0.00000  Uiso   1.00
Ni12   Ni    0.66922   0.66921   0.00192   0.00000  Uiso   1.00
C577   C     0.98007   0.33381   0.92381   0.00000  Uiso   1.00
C578   C     0.99048   0.33369   0.90577   0.00000  Uiso   1.00
C579   C     0.01162   0.33367   0.90577   0.00000  Uiso   1.00
C580   C     0.02203   0.33375   0.92382   0.00000  Uiso   1.00
C581   C     0.01108   0.33385   0.94124   0.00000  Uiso   1.00
C582   C     0.99103   0.33388   0.94124   0.00000  Uiso   1.00
C583   C     0.98530   0.33393   0.96074   0.00000  Uiso   1.00
N97    N     0.00107   0.33394   0.97315   0.00000  Uiso   1.00
C584   C     0.01683   0.33389   0.96074   0.00000  Uiso   1.00
N98    N     0.03574   0.33385   0.96646   0.00000  Uiso   1.00
C585   C     0.04146   0.33388   0.98537   0.00000  Uiso   1.00
N99    N     0.02905   0.33393   0.00113   0.00000  Uiso   1.00
C586   C     0.04147   0.33391   0.01690   0.00000  Uiso   1.00
C587   C     0.06097   0.33385   0.01116   0.00000  Uiso   1.00
C588   C     0.06096   0.33382   0.99110   0.00000  Uiso   1.00
N100   N     0.00108   0.33393   0.02910   0.00000  Uiso   1.00
C589   C     0.01685   0.33392   0.04152   0.00000  Uiso   1.00
N101   N     0.03576   0.33390   0.03581   0.00000  Uiso   1.00
C590   C     0.01111   0.33385   0.06102   0.00000  Uiso   1.00
C591   C     0.99106   0.33382   0.06101   0.00000  Uiso   1.00
C592   C     0.98532   0.33388   0.04151   0.00000  Uiso   1.00
C593   C     0.07837   0.33370   0.98014   0.00000  Uiso   1.00
C594   C     0.09643   0.33360   0.99055   0.00000  Uiso   1.00
C595   C     0.09644   0.33364   0.01168   0.00000  Uiso   1.00
C596   C     0.07840   0.33377   0.02211   0.00000  Uiso   1.00
C597   C     0.98010   0.33371   0.07843   0.00000  Uiso   1.00
C598   C     0.99051   0.33361   0.09648   0.00000  Uiso   1.00
C599   C     0.01165   0.33364   0.09649   0.00000  Uiso   1.00
C600   C     0.02207   0.33377   0.07845   0.00000  Uiso   1.00
N102   N     0.97310   0.33394   0.00112   0.00000  Uiso   1.00
C601   C     0.96069   0.33390   0.01689   0.00000  Uiso   1.00
N103   N     0.96641   0.33386   0.03580   0.00000  Uiso   1.00
C602   C     0.94119   0.33386   0.01115   0.00000  Uiso   1.00
C603   C     0.94119   0.33389   0.99110   0.00000  Uiso   1.00
C604   C     0.96068   0.33394   0.98536   0.00000  Uiso   1.00
C605   C     0.92376   0.33381   0.98014   0.00000  Uiso   1.00
C606   C     0.90571   0.33371   0.99055   0.00000  Uiso   1.00
C607   C     0.90572   0.33369   0.01169   0.00000  Uiso   1.00
C608   C     0.92377   0.33376   0.02210   0.00000  Uiso   1.00
N104   N     0.96639   0.33393   0.96645   0.00000  Uiso   1.00
H193   H     0.96408   0.33382   0.92425   0.00000  Uiso   1.00
H194   H     0.03803   0.33373   0.92425   0.00000  Uiso   1.00
H195   H     0.07793   0.33367   0.96415   0.00000  Uiso   1.00
H196   H     0.07798   0.33378   0.03810   0.00000  Uiso   1.00
H197   H     0.96411   0.33367   0.07798   0.00000  Uiso   1.00
H198   H     0.03806   0.33378   0.07803   0.00000  Uiso   1.00
H199   H     0.92419   0.33382   0.96415   0.00000  Uiso   1.00
H200   H     0.92421   0.33374   0.03809   0.00000  Uiso   1.00
C609   C     0.88771   0.33361   0.98031   0.00000  Uiso   1.00
C610   C     0.86990   0.33349   0.99069   0.00000  Uiso   1.00
C611   C     0.86991   0.33348   0.01154   0.00000  Uiso   1.00
C612   C     0.88772   0.33357   0.02193   0.00000  Uiso   1.00
C613   C     0.98023   0.33360   0.88777   0.00000  Uiso   1.00
C614   C     0.99062   0.33347   0.86995   0.00000  Uiso   1.00
C615   C     0.01146   0.33345   0.86996   0.00000  Uiso   1.00
C616   C     0.02185   0.33355   0.88777   0.00000  Uiso   1.00
C617   C     0.11441   0.33346   0.98030   0.00000  Uiso   1.00
C618   C     0.13224   0.33335   0.99067   0.00000  Uiso   1.00
C619   C     0.13226   0.33339   0.01152   0.00000  Uiso   1.00
C620   C     0.11445   0.33354   0.02192   0.00000  Uiso   1.00
C621   C     0.98026   0.33346   0.11447   0.00000  Uiso   1.00
C622   C     0.99064   0.33335   0.13229   0.00000  Uiso   1.00
C623   C     0.01149   0.33339   0.13231   0.00000  Uiso   1.00
C624   C     0.02188   0.33354   0.11450   0.00000  Uiso   1.00
H201   H     0.88746   0.33363   0.96431   0.00000  Uiso   1.00
O97    O     0.85196   0.33340   0.98057   0.00000  Uiso   1.00
O98    O     0.85197   0.33337   0.02166   0.00000  Uiso   1.00
H202   H     0.88748   0.33356   0.03793   0.00000  Uiso   1.00
H203   H     0.96424   0.33361   0.88752   0.00000  Uiso   1.00
O99    O     0.98049   0.33338   0.85201   0.00000  Uiso   1.00
O100   O     0.02158   0.33334   0.85202   0.00000  Uiso   1.00
H204   H     0.03785   0.33353   0.88753   0.00000  Uiso   1.00
H205   H     0.11464   0.33343   0.96430   0.00000  Uiso   1.00
O101   O     0.15017   0.33321   0.98054   0.00000  Uiso   1.00
O102   O     0.15021   0.33330   0.02163   0.00000  Uiso   1.00
H206   H     0.11471   0.33357   0.03791   0.00000  Uiso   1.00
H207   H     0.96427   0.33343   0.11470   0.00000  Uiso   1.00
O103   O     0.98051   0.33320   0.15022   0.00000  Uiso   1.00
O104   O     0.02160   0.33330   0.15026   0.00000  Uiso   1.00
H208   H     0.03788   0.33357   0.11476   0.00000  Uiso   1.00
Ni13   Ni    0.00108   0.33394   0.00113   0.00000  Uiso   1.00
C625   C     0.66847   0.02216   0.07858   0.00000  Uiso   1.00
C626   C     0.66856   0.01175   0.09662   0.00000  Uiso   1.00
C627   C     0.66858   0.99061   0.09662   0.00000  Uiso   1.00
C628   C     0.66851   0.98019   0.07857   0.00000  Uiso   1.00
C629   C     0.66842   0.99115   0.06115   0.00000  Uiso   1.00
C630   C     0.66840   0.01120   0.06115   0.00000  Uiso   1.00
C631   C     0.66835   0.01693   0.04165   0.00000  Uiso   1.00
N105   N     0.66835   0.00117   0.02923   0.00000  Uiso   1.00
C632   C     0.66839   0.98541   0.04165   0.00000  Uiso   1.00
N106   N     0.66843   0.96650   0.03593   0.00000  Uiso   1.00
C633   C     0.66841   0.96078   0.01702   0.00000  Uiso   1.00
N107   N     0.66836   0.97319   0.00125   0.00000  Uiso   1.00
C634   C     0.66838   0.96077   0.98549   0.00000  Uiso   1.00
C635   C     0.66844   0.94127   0.99123   0.00000  Uiso   1.00
C636   C     0.66846   0.94128   0.01128   0.00000  Uiso   1.00
N108   N     0.66836   0.00116   0.97329   0.00000  Uiso   1.00
C637   C     0.66838   0.98539   0.96087   0.00000  Uiso   1.00
N109   N     0.66839   0.96648   0.96658   0.00000  Uiso   1.00
C638   C     0.66844   0.99113   0.94137   0.00000  Uiso   1.00
C639   C     0.66847   0.01118   0.94138   0.00000  Uiso   1.00
C640   C     0.66841   0.01692   0.96088   0.00000  Uiso   1.00
C641   C     0.66858   0.92386   0.02224   0.00000  Uiso   1.00
C642   C     0.66867   0.90581   0.01183   0.00000  Uiso   1.00
C643   C     0.66864   0.90580   0.99069   0.00000  Uiso   1.00
C644   C     0.66852   0.92384   0.98027   0.00000  Uiso   1.00
C645   C     0.66858   0.02214   0.92396   0.00000  Uiso   1.00
C646   C     0.66868   0.01173   0.90591   0.00000  Uiso   1.00
C647   C     0.66864   0.99060   0.90589   0.00000  Uiso   1.00
C648   C     0.66852   0.98018   0.92394   0.00000  Uiso   1.00
N110   N     0.66835   0.02914   0.00127   0.00000  Uiso   1.00
C649   C     0.66839   0.04155   0.98551   0.00000  Uiso   1.00
N111   N     0.66843   0.03583   0.96660   0.00000  Uiso   1.00
C650   C     0.66843   0.06105   0.99125   0.00000  Uiso   1.00
C651   C     0.66840   0.06105   0.01130   0.00000  Uiso   1.00
C652   C     0.66835   0.04155   0.01703   0.00000  Uiso   1.00
C653   C     0.66847   0.07848   0.02226   0.00000  Uiso   1.00
C654   C     0.66857   0.09652   0.01185   0.00000  Uiso   1.00
C655   C     0.66859   0.09652   0.99071   0.00000  Uiso   1.00
C656   C     0.66851   0.07847   0.98030   0.00000  Uiso   1.00
N112   N     0.66836   0.03584   0.03594   0.00000  Uiso   1.00
H209   H     0.66846   0.03815   0.07815   0.00000  Uiso   1.00
H210   H     0.66853   0.96420   0.07813   0.00000  Uiso   1.00
H211   H     0.66861   0.92431   0.03823   0.00000  Uiso   1.00
H212   H     0.66851   0.92426   0.96428   0.00000  Uiso   1.00
H213   H     0.66862   0.03813   0.92441   0.00000  Uiso   1.00
H214   H     0.66851   0.96419   0.92436   0.00000  Uiso   1.00
H215   H     0.66846   0.07805   0.03825   0.00000  Uiso   1.00
H216   H     0.66854   0.07803   0.96431   0.00000  Uiso   1.00
C657   C     0.66866   0.11452   0.02209   0.00000  Uiso   1.00
C658   C     0.66877   0.13234   0.01171   0.00000  Uiso   1.00
C659   C     0.66879   0.13233   0.99086   0.00000  Uiso   1.00
C660   C     0.66870   0.11451   0.98047   0.00000  Uiso   1.00
C661   C     0.66865   0.02199   0.11462   0.00000  Uiso   1.00
C662   C     0.66877   0.01161   0.13244   0.00000  Uiso   1.00
C663   C     0.66878   0.99076   0.13243   0.00000  Uiso   1.00
C664   C     0.66868   0.98037   0.11461   0.00000  Uiso   1.00
C665   C     0.66881   0.88782   0.02208   0.00000  Uiso   1.00
C666   C     0.66892   0.87000   0.01170   0.00000  Uiso   1.00
C667   C     0.66888   0.86998   0.99086   0.00000  Uiso   1.00
C668   C     0.66874   0.88779   0.98046   0.00000  Uiso   1.00
C669   C     0.66882   0.02199   0.88792   0.00000  Uiso   1.00
C670   C     0.66893   0.01161   0.87010   0.00000  Uiso   1.00
C671   C     0.66888   0.99076   0.87008   0.00000  Uiso   1.00
C672   C     0.66874   0.98036   0.88789   0.00000  Uiso   1.00
H217   H     0.66864   0.11477   0.03809   0.00000  Uiso   1.00
O105   O     0.66886   0.15028   0.02183   0.00000  Uiso   1.00
O106   O     0.66889   0.15027   0.98074   0.00000  Uiso   1.00
H218   H     0.66871   0.11475   0.96448   0.00000  Uiso   1.00
H219   H     0.66864   0.03799   0.11487   0.00000  Uiso   1.00
O107   O     0.66886   0.02173   0.15038   0.00000  Uiso   1.00
O108   O     0.66888   0.98064   0.15037   0.00000  Uiso   1.00
H220   H     0.66869   0.96437   0.11485   0.00000  Uiso   1.00
H221   H     0.66884   0.88759   0.03808   0.00000  Uiso   1.00
O109   O     0.66906   0.85207   0.02184   0.00000  Uiso   1.00
O110   O     0.66896   0.85203   0.98074   0.00000  Uiso   1.00
H222   H     0.66871   0.88753   0.96446   0.00000  Uiso   1.00
H223   H     0.66885   0.03798   0.88769   0.00000  Uiso   1.00
O111   O     0.66907   0.02174   0.85217   0.00000  Uiso   1.00
O112   O     0.66896   0.98065   0.85213   0.00000  Uiso   1.00
H224   H     0.66871   0.96437   0.88763   0.00000  Uiso   1.00
Ni14   Ni    0.66835   0.00116   0.00126   0.00000  Uiso   1.00
C673   C     0.98021   0.66845   0.92394   0.00000  Uiso   1.00
C674   C     0.99064   0.66857   0.90590   0.00000  Uiso   1.00
C675   C     0.01177   0.66861   0.90592   0.00000  Uiso   1.00
C676   C     0.02218   0.66851   0.92398   0.00000  Uiso   1.00
C677   C     0.01121   0.66840   0.94139   0.00000  Uiso   1.00
C678   C     0.99116   0.66837   0.94137   0.00000  Uiso   1.00
C679   C     0.98542   0.66831   0.96087   0.00000  Uiso   1.00
N113   N     0.00118   0.66829   0.97329   0.00000  Uiso   1.00
C680   C     0.01694   0.66834   0.96089   0.00000  Uiso   1.00
N114   N     0.03585   0.66836   0.96661   0.00000  Uiso   1.00
C681   C     0.04157   0.66832   0.98552   0.00000  Uiso   1.00
N115   N     0.02915   0.66828   0.00128   0.00000  Uiso   1.00
C682   C     0.04156   0.66829   0.01705   0.00000  Uiso   1.00
C683   C     0.06106   0.66834   0.01132   0.00000  Uiso   1.00
C684   C     0.06106   0.66836   0.99127   0.00000  Uiso   1.00
N116   N     0.00117   0.66828   0.02924   0.00000  Uiso   1.00
C685   C     0.01694   0.66829   0.04167   0.00000  Uiso   1.00
N117   N     0.03585   0.66830   0.03596   0.00000  Uiso   1.00
C686   C     0.01120   0.66834   0.06116   0.00000  Uiso   1.00
C687   C     0.99114   0.66836   0.06115   0.00000  Uiso   1.00
C688   C     0.98541   0.66833   0.04165   0.00000  Uiso   1.00
C689   C     0.07849   0.66845   0.98032   0.00000  Uiso   1.00
C690   C     0.09653   0.66853   0.99074   0.00000  Uiso   1.00
C691   C     0.09653   0.66851   0.01188   0.00000  Uiso   1.00
C692   C     0.07849   0.66840   0.02229   0.00000  Uiso   1.00
C693   C     0.98019   0.66845   0.07857   0.00000  Uiso   1.00
C694   C     0.99060   0.66853   0.09662   0.00000  Uiso   1.00
C695   C     0.01173   0.66852   0.09663   0.00000  Uiso   1.00
C696   C     0.02215   0.66841   0.07859   0.00000  Uiso   1.00
N118   N     0.97320   0.66829   0.00125   0.00000  Uiso   1.00
C697   C     0.96079   0.66835   0.01701   0.00000  Uiso   1.00
N119   N     0.96650   0.66836   0.03593   0.00000  Uiso   1.00
C698   C     0.94129   0.66840   0.01127   0.00000  Uiso   1.00
C699   C     0.94129   0.66837   0.99122   0.00000  Uiso   1.00
C700   C     0.96079   0.66831   0.98548   0.00000  Uiso   1.00
C701   C     0.92386   0.66846   0.98026   0.00000  Uiso   1.00
C702   C     0.90581   0.66858   0.99067   0.00000  Uiso   1.00
C703   C     0.90582   0.66862   0.01181   0.00000  Uiso   1.00
C704   C     0.92387   0.66852   0.02222   0.00000  Uiso   1.00
N120   N     0.96650   0.66832   0.96658   0.00000  Uiso   1.00
H225   H     0.96422   0.66844   0.92436   0.00000  Uiso   1.00
H226   H     0.03817   0.66855   0.92443   0.00000  Uiso   1.00
H227   H     0.07805   0.66847   0.96433   0.00000  Uiso   1.00
H228   H     0.07805   0.66840   0.03828   0.00000  Uiso   1.00
H229   H     0.96420   0.66848   0.07813   0.00000  Uiso   1.00
H230   H     0.03814   0.66841   0.07816   0.00000  Uiso   1.00
H231   H     0.92429   0.66844   0.96427   0.00000  Uiso   1.00
H232   H     0.92431   0.66855   0.03821   0.00000  Uiso   1.00
C705   C     0.88781   0.66869   0.98043   0.00000  Uiso   1.00
C706   C     0.87000   0.66883   0.99083   0.00000  Uiso   1.00
C707   C     0.87001   0.66888   0.01167   0.00000  Uiso   1.00
C708   C     0.88783   0.66876   0.02206   0.00000  Uiso   1.00
C709   C     0.98041   0.66867   0.88789   0.00000  Uiso   1.00
C710   C     0.99081   0.66882   0.87008   0.00000  Uiso   1.00
C711   C     0.01166   0.66886   0.87011   0.00000  Uiso   1.00
C712   C     0.02203   0.66876   0.88794   0.00000  Uiso   1.00
C713   C     0.11453   0.66864   0.98050   0.00000  Uiso   1.00
C714   C     0.13235   0.66873   0.99090   0.00000  Uiso   1.00
C715   C     0.13235   0.66871   0.01175   0.00000  Uiso   1.00
C716   C     0.11453   0.66860   0.02213   0.00000  Uiso   1.00
C717   C     0.98035   0.66864   0.11461   0.00000  Uiso   1.00
C718   C     0.99074   0.66874   0.13243   0.00000  Uiso   1.00
C719   C     0.01158   0.66873   0.13245   0.00000  Uiso   1.00
C720   C     0.02197   0.66862   0.11464   0.00000  Uiso   1.00
H233   H     0.88755   0.66866   0.96444   0.00000  Uiso   1.00
O113   O     0.85205   0.66892   0.98071   0.00000  Uiso   1.00
O114   O     0.85208   0.66902   0.02180   0.00000  Uiso   1.00
H234   H     0.88759   0.66879   0.03805   0.00000  Uiso   1.00
H235   H     0.96442   0.66864   0.88762   0.00000  Uiso   1.00
O115   O     0.98071   0.66890   0.85213   0.00000  Uiso   1.00
O116   O     0.02180   0.66900   0.85218   0.00000  Uiso   1.00
H236   H     0.03803   0.66879   0.88771   0.00000  Uiso   1.00
H237   H     0.11478   0.66865   0.96451   0.00000  Uiso   1.00
O117   O     0.15029   0.66884   0.98078   0.00000  Uiso   1.00
O118   O     0.15029   0.66880   0.02187   0.00000  Uiso   1.00
H238   H     0.11478   0.66858   0.03812   0.00000  Uiso   1.00
H239   H     0.96435   0.66865   0.11485   0.00000  Uiso   1.00
O119   O     0.98061   0.66885   0.15037   0.00000  Uiso   1.00
O120   O     0.02170   0.66883   0.15039   0.00000  Uiso   1.00
H240   H     0.03797   0.66861   0.11489   0.00000  Uiso   1.00
Ni15   Ni    0.00118   0.66828   0.00127   0.00000  Uiso   1.00
C721   C     0.33375   0.02205   0.07846   0.00000  Uiso   1.00
C722   C     0.33362   0.01163   0.09650   0.00000  Uiso   1.00
C723   C     0.33359   0.99050   0.09649   0.00000  Uiso   1.00
C724   C     0.33369   0.98009   0.07844   0.00000  Uiso   1.00
C725   C     0.33381   0.99104   0.06102   0.00000  Uiso   1.00
C726   C     0.33383   0.01110   0.06103   0.00000  Uiso   1.00
C727   C     0.33389   0.01683   0.04153   0.00000  Uiso   1.00
N121   N     0.33391   0.00106   0.02911   0.00000  Uiso   1.00
C728   C     0.33386   0.98530   0.04153   0.00000  Uiso   1.00
N122   N     0.33384   0.96639   0.03581   0.00000  Uiso   1.00
C729   C     0.33388   0.96067   0.01690   0.00000  Uiso   1.00
N123   N     0.33393   0.97308   0.00114   0.00000  Uiso   1.00
C730   C     0.33392   0.96065   0.98537   0.00000  Uiso   1.00
C731   C     0.33387   0.94116   0.99111   0.00000  Uiso   1.00
C732   C     0.33384   0.94117   0.01117   0.00000  Uiso   1.00
N124   N     0.33393   0.00104   0.97317   0.00000  Uiso   1.00
C733   C     0.33392   0.98527   0.96075   0.00000  Uiso   1.00
N125   N     0.33391   0.96636   0.96646   0.00000  Uiso   1.00
C734   C     0.33387   0.99100   0.94125   0.00000  Uiso   1.00
C735   C     0.33385   0.01105   0.94125   0.00000  Uiso   1.00
C736   C     0.33388   0.01680   0.96075   0.00000  Uiso   1.00
C737   C     0.33375   0.92375   0.02212   0.00000  Uiso   1.00
C738   C     0.33367   0.90570   0.01171   0.00000  Uiso   1.00
C739   C     0.33370   0.90569   0.99058   0.00000  Uiso   1.00
C740   C     0.33380   0.92373   0.98016   0.00000  Uiso   1.00
C741   C     0.33375   0.02200   0.92383   0.00000  Uiso   1.00
C742   C     0.33368   0.01158   0.90578   0.00000  Uiso   1.00
C743   C     0.33370   0.99044   0.90578   0.00000  Uiso   1.00
C744   C     0.33380   0.98004   0.92383   0.00000  Uiso   1.00
N126   N     0.33391   0.02902   0.00114   0.00000  Uiso   1.00
C745   C     0.33386   0.04143   0.98537   0.00000  Uiso   1.00
N127   N     0.33384   0.03571   0.96646   0.00000  Uiso   1.00
C746   C     0.33381   0.06093   0.99111   0.00000  Uiso   1.00
C747   C     0.33383   0.06094   0.01116   0.00000  Uiso   1.00
C748   C     0.33389   0.04145   0.01690   0.00000  Uiso   1.00
C749   C     0.33375   0.07838   0.02211   0.00000  Uiso   1.00
C750   C     0.33362   0.09642   0.01169   0.00000  Uiso   1.00
C751   C     0.33359   0.09640   0.99055   0.00000  Uiso   1.00
C752   C     0.33369   0.07834   0.98015   0.00000  Uiso   1.00
N128   N     0.33388   0.03574   0.03581   0.00000  Uiso   1.00
H241   H     0.33376   0.03804   0.07803   0.00000  Uiso   1.00
H242   H     0.33366   0.96410   0.07800   0.00000  Uiso   1.00
H243   H     0.33372   0.92419   0.03811   0.00000  Uiso   1.00
H244   H     0.33381   0.92415   0.96417   0.00000  Uiso   1.00
H245   H     0.33372   0.03799   0.92426   0.00000  Uiso   1.00
H246   H     0.33381   0.96405   0.92426   0.00000  Uiso   1.00
H247   H     0.33376   0.07796   0.03810   0.00000  Uiso   1.00
H248   H     0.33366   0.07790   0.96416   0.00000  Uiso   1.00
C753   C     0.33352   0.11443   0.02192   0.00000  Uiso   1.00
C754   C     0.33338   0.13223   0.01152   0.00000  Uiso   1.00
C755   C     0.33334   0.13221   0.99067   0.00000  Uiso   1.00
C756   C     0.33345   0.11439   0.98030   0.00000  Uiso   1.00
C757   C     0.33352   0.02187   0.11451   0.00000  Uiso   1.00
C758   C     0.33338   0.01147   0.13232   0.00000  Uiso   1.00
C759   C     0.33334   0.99063   0.13230   0.00000  Uiso   1.00
C760   C     0.33345   0.98025   0.11448   0.00000  Uiso   1.00
C761   C     0.33356   0.88770   0.02196   0.00000  Uiso   1.00
C762   C     0.33346   0.86988   0.01157   0.00000  Uiso   1.00
C763   C     0.33348   0.86987   0.99073   0.00000  Uiso   1.00
C764   C     0.33360   0.88768   0.98034   0.00000  Uiso   1.00
C765   C     0.33356   0.02182   0.88778   0.00000  Uiso   1.00
C766   C     0.33347   0.01142   0.86997   0.00000  Uiso   1.00
C767   C     0.33349   0.99058   0.86997   0.00000  Uiso   1.00
C768   C     0.33361   0.98019   0.88778   0.00000  Uiso   1.00
H249   H     0.33355   0.11469   0.03791   0.00000  Uiso   1.00
O121   O     0.33329   0.15019   0.02162   0.00000  Uiso   1.00
O122   O     0.33320   0.15014   0.98053   0.00000  Uiso   1.00
H250   H     0.33342   0.11461   0.96430   0.00000  Uiso   1.00
H251   H     0.33355   0.03787   0.11477   0.00000  Uiso   1.00
O123   O     0.33329   0.02159   0.15027   0.00000  Uiso   1.00
O124   O     0.33320   0.98049   0.15023   0.00000  Uiso   1.00
H252   H     0.33342   0.96425   0.11471   0.00000  Uiso   1.00
H253   H     0.33354   0.88747   0.03795   0.00000  Uiso   1.00
O125   O     0.33335   0.85195   0.02170   0.00000  Uiso   1.00
O126   O     0.33339   0.85193   0.98061   0.00000  Uiso   1.00
H254   H     0.33362   0.88743   0.96434   0.00000  Uiso   1.00
H255   H     0.33355   0.03781   0.88754   0.00000  Uiso   1.00
O127   O     0.33336   0.02154   0.85203   0.00000  Uiso   1.00
O128   O     0.33340   0.98045   0.85203   0.00000  Uiso   1.00
H256   H     0.33362   0.96420   0.88754   0.00000  Uiso   1.00
Ni16   Ni    0.33392   0.00105   0.00114   0.00000  Uiso   1.00
C769   C     0.98007   0.92374   0.33392   0.00000  Uiso   1.00
C770   C     0.99048   0.90569   0.33382   0.00000  Uiso   1.00
C771   C     0.01161   0.90570   0.33378   0.00000  Uiso   1.00
C772   C     0.02203   0.92374   0.33385   0.00000  Uiso   1.00
C773   C     0.01108   0.94117   0.33395   0.00000  Uiso   1.00
C774   C     0.99103   0.94117   0.33398   0.00000  Uiso   1.00
C775   C     0.98530   0.96066   0.33403   0.00000  Uiso   1.00
N129   N     0.00106   0.97308   0.33403   0.00000  Uiso   1.00
C776   C     0.01682   0.96066   0.33398   0.00000  Uiso   1.00
N130   N     0.03573   0.96638   0.33393   0.00000  Uiso   1.00
C777   C     0.04145   0.98529   0.33395   0.00000  Uiso   1.00
N131   N     0.02904   0.00106   0.33400   0.00000  Uiso   1.00
C778   C     0.04147   0.01682   0.33399   0.00000  Uiso   1.00
C779   C     0.06096   0.01108   0.33392   0.00000  Uiso   1.00
C780   C     0.06095   0.99103   0.33389   0.00000  Uiso   1.00
N132   N     0.00108   0.02903   0.33400   0.00000  Uiso   1.00
C781   C     0.01685   0.04145   0.33398   0.00000  Uiso   1.00
N133   N     0.03576   0.03573   0.33397   0.00000  Uiso   1.00
C782   C     0.01111   0.06094   0.33391   0.00000  Uiso   1.00
C783   C     0.99106   0.06094   0.33388   0.00000  Uiso   1.00
C784   C     0.98532   0.04144   0.33394   0.00000  Uiso   1.00
C785   C     0.07837   0.98007   0.33378   0.00000  Uiso   1.00
C786   C     0.09642   0.99048   0.33368   0.00000  Uiso   1.00
C787   C     0.09644   0.01161   0.33371   0.00000  Uiso   1.00
C788   C     0.07840   0.02203   0.33384   0.00000  Uiso   1.00
C789   C     0.98010   0.07835   0.33376   0.00000  Uiso   1.00
C790   C     0.99051   0.09641   0.33366   0.00000  Uiso   1.00
C791   C     0.01164   0.09642   0.33369   0.00000  Uiso   1.00
C792   C     0.02206   0.07838   0.33382   0.00000  Uiso   1.00
N134   N     0.97310   0.00105   0.33402   0.00000  Uiso   1.00
C793   C     0.96069   0.01681   0.33397   0.00000  Uiso   1.00
N135   N     0.96641   0.03572   0.33392   0.00000  Uiso   1.00
C794   C     0.94119   0.01107   0.33394   0.00000  Uiso   1.00
C795   C     0.94118   0.99102   0.33398   0.00000  Uiso   1.00
C796   C     0.96068   0.98528   0.33403   0.00000  Uiso   1.00
C797   C     0.92375   0.98006   0.33391   0.00000  Uiso   1.00
C798   C     0.90571   0.99048   0.33380   0.00000  Uiso   1.00
C799   C     0.90572   0.01161   0.33377   0.00000  Uiso   1.00
C800   C     0.92377   0.02203   0.33384   0.00000  Uiso   1.00
N136   N     0.96639   0.96638   0.33403   0.00000  Uiso   1.00
H257   H     0.96408   0.92417   0.33394   0.00000  Uiso   1.00
H258   H     0.03802   0.92418   0.33382   0.00000  Uiso   1.00
H259   H     0.07792   0.96408   0.33374   0.00000  Uiso   1.00
H260   H     0.07797   0.03802   0.33385   0.00000  Uiso   1.00
H261   H     0.96411   0.07791   0.33372   0.00000  Uiso   1.00
H262   H     0.03805   0.07795   0.33384   0.00000  Uiso   1.00
H263   H     0.92418   0.96407   0.33393   0.00000  Uiso   1.00
H264   H     0.92420   0.03802   0.33380   0.00000  Uiso   1.00
C801   C     0.88771   0.98023   0.33372   0.00000  Uiso   1.00
C802   C     0.86990   0.99062   0.33359   0.00000  Uiso   1.00
C803   C     0.86990   0.01146   0.33356   0.00000  Uiso   1.00
C804   C     0.88772   0.02185   0.33365   0.00000  Uiso   1.00
C805   C     0.98023   0.88770   0.33373   0.00000  Uiso   1.00
C806   C     0.99061   0.86988   0.33361   0.00000  Uiso   1.00
C807   C     0.01146   0.86988   0.33358   0.00000  Uiso   1.00
C808   C     0.02185   0.88770   0.33367   0.00000  Uiso   1.00
C809   C     0.11441   0.98022   0.33353   0.00000  Uiso   1.00
C810   C     0.13223   0.99060   0.33342   0.00000  Uiso   1.00
C811   C     0.13225   0.01145   0.33347   0.00000  Uiso   1.00
C812   C     0.11445   0.02185   0.33361   0.00000  Uiso   1.00
C813   C     0.98026   0.11439   0.33351   0.00000  Uiso   1.00
C814   C     0.99064   0.13222   0.33339   0.00000  Uiso   1.00
C815   C     0.01148   0.13223   0.33344   0.00000  Uiso   1.00
C816   C     0.02188   0.11443   0.33359   0.00000  Uiso   1.00
H265   H     0.88746   0.96423   0.33374   0.00000  Uiso   1.00
O129   O     0.85195   0.98049   0.33351   0.00000  Uiso   1.00
O130   O     0.85196   0.02158   0.33345   0.00000  Uiso   1.00
H266   H     0.88748   0.03785   0.33363   0.00000  Uiso   1.00
H267   H     0.96423   0.88745   0.33375   0.00000  Uiso   1.00
O131   O     0.98048   0.85194   0.33352   0.00000  Uiso   1.00
O132   O     0.02157   0.85194   0.33346   0.00000  Uiso   1.00
H268   H     0.03785   0.88745   0.33364   0.00000  Uiso   1.00
H269   H     0.11464   0.96423   0.33350   0.00000  Uiso   1.00
O133   O     0.15016   0.98047   0.33328   0.00000  Uiso   1.00
O134   O     0.15021   0.02156   0.33338   0.00000  Uiso   1.00
H270   H     0.11471   0.03784   0.33364   0.00000  Uiso   1.00
H271   H     0.96426   0.11463   0.33348   0.00000  Uiso   1.00
O135   O     0.98050   0.15015   0.33325   0.00000  Uiso   1.00
O136   O     0.02160   0.15019   0.33335   0.00000  Uiso   1.00
H272   H     0.03788   0.11468   0.33362   0.00000  Uiso   1.00
Ni17   Ni    0.00107   0.00105   0.33402   0.00000  Uiso   1.00
C817   C     0.98019   0.92382   0.66859   0.00000  Uiso   1.00
C818   C     0.99061   0.90578   0.66871   0.00000  Uiso   1.00
C819   C     0.01175   0.90579   0.66874   0.00000  Uiso   1.00
C820   C     0.02216   0.92385   0.66863   0.00000  Uiso   1.00
C821   C     0.01120   0.94126   0.66851   0.00000  Uiso   1.00
C822   C     0.99114   0.94125   0.66849   0.00000  Uiso   1.00
C823   C     0.98541   0.96075   0.66843   0.00000  Uiso   1.00
N137   N     0.00117   0.97317   0.66840   0.00000  Uiso   1.00
C824   C     0.01694   0.96076   0.66845   0.00000  Uiso   1.00
N138   N     0.03585   0.96648   0.66846   0.00000  Uiso   1.00
C825   C     0.04157   0.98539   0.66842   0.00000  Uiso   1.00
N139   N     0.02915   0.00115   0.66838   0.00000  Uiso   1.00
C826   C     0.04157   0.01691   0.66838   0.00000  Uiso   1.00
C827   C     0.06107   0.01118   0.66843   0.00000  Uiso   1.00
C828   C     0.06107   0.99113   0.66845   0.00000  Uiso   1.00
N140   N     0.00119   0.02912   0.66837   0.00000  Uiso   1.00
C829   C     0.01696   0.04154   0.66838   0.00000  Uiso   1.00
N141   N     0.03586   0.03582   0.66839   0.00000  Uiso   1.00
C830   C     0.01122   0.06103   0.66842   0.00000  Uiso   1.00
C831   C     0.99117   0.06103   0.66844   0.00000  Uiso   1.00
C832   C     0.98543   0.04153   0.66841   0.00000  Uiso   1.00
C833   C     0.07849   0.98017   0.66854   0.00000  Uiso   1.00
C834   C     0.09654   0.99059   0.66861   0.00000  Uiso   1.00
C835   C     0.09654   0.01173   0.66860   0.00000  Uiso   1.00
C836   C     0.07850   0.02214   0.66850   0.00000  Uiso   1.00
C837   C     0.98022   0.07845   0.66852   0.00000  Uiso   1.00
C838   C     0.99064   0.09650   0.66860   0.00000  Uiso   1.00
C839   C     0.01177   0.09650   0.66859   0.00000  Uiso   1.00
C840   C     0.02218   0.07846   0.66849   0.00000  Uiso   1.00
N142   N     0.97321   0.00114   0.66839   0.00000  Uiso   1.00
C841   C     0.96080   0.01690   0.66844   0.00000  Uiso   1.00
N143   N     0.96652   0.03582   0.66845   0.00000  Uiso   1.00
C842   C     0.94130   0.01117   0.66850   0.00000  Uiso   1.00
C843   C     0.94129   0.99112   0.66848   0.00000  Uiso   1.00
C844   C     0.96079   0.98538   0.66842   0.00000  Uiso   1.00
C845   C     0.92386   0.98017   0.66857   0.00000  Uiso   1.00
C846   C     0.90581   0.99059   0.66869   0.00000  Uiso   1.00
C847   C     0.90583   0.01172   0.66872   0.00000  Uiso   1.00
C848   C     0.92388   0.02213   0.66861   0.00000  Uiso   1.00
N144   N     0.96650   0.96646   0.66844   0.00000  Uiso   1.00
H273   H     0.96420   0.92425   0.66858   0.00000  Uiso   1.00
H274   H     0.03815   0.92429   0.66866   0.00000  Uiso   1.00
H275   H     0.07805   0.96418   0.66856   0.00000  Uiso   1.00
H276   H     0.07807   0.03813   0.66849   0.00000  Uiso   1.00
H277   H     0.96423   0.07802   0.66854   0.00000  Uiso   1.00
H278   H     0.03817   0.07802   0.66849   0.00000  Uiso   1.00
H279   H     0.92428   0.96418   0.66857   0.00000  Uiso   1.00
H280   H     0.92433   0.03812   0.66864   0.00000  Uiso   1.00
C849   C     0.88781   0.98035   0.66880   0.00000  Uiso   1.00
C850   C     0.87000   0.99075   0.66894   0.00000  Uiso   1.00
C851   C     0.87002   0.01160   0.66898   0.00000  Uiso   1.00
C852   C     0.88784   0.02198   0.66886   0.00000  Uiso   1.00
C853   C     0.98038   0.88777   0.66883   0.00000  Uiso   1.00
C854   C     0.99077   0.86996   0.66897   0.00000  Uiso   1.00
C855   C     0.01162   0.86998   0.66900   0.00000  Uiso   1.00
C856   C     0.02200   0.88780   0.66889   0.00000  Uiso   1.00
C857   C     0.11453   0.98035   0.66872   0.00000  Uiso   1.00
C858   C     0.13235   0.99074   0.66881   0.00000  Uiso   1.00
C859   C     0.13236   0.01159   0.66880   0.00000  Uiso   1.00
C860   C     0.11454   0.02197   0.66869   0.00000  Uiso   1.00
C861   C     0.98040   0.11450   0.66870   0.00000  Uiso   1.00
C862   C     0.99079   0.13231   0.66880   0.00000  Uiso   1.00
C863   C     0.01164   0.13232   0.66880   0.00000  Uiso   1.00
C864   C     0.02202   0.11450   0.66868   0.00000  Uiso   1.00
H281   H     0.88754   0.96436   0.66878   0.00000  Uiso   1.00
O137   O     0.85205   0.98065   0.66903   0.00000  Uiso   1.00
O138   O     0.85209   0.02174   0.66911   0.00000  Uiso   1.00
H282   H     0.88761   0.03797   0.66888   0.00000  Uiso   1.00
H283   H     0.96438   0.88751   0.66880   0.00000  Uiso   1.00
O139   O     0.98066   0.85201   0.66906   0.00000  Uiso   1.00
O140   O     0.02175   0.85205   0.66914   0.00000  Uiso   1.00
H284   H     0.03799   0.88757   0.66891   0.00000  Uiso   1.00
H285   H     0.11478   0.96435   0.66873   0.00000  Uiso   1.00
O141   O     0.15029   0.98062   0.66892   0.00000  Uiso   1.00
O142   O     0.15030   0.02171   0.66890   0.00000  Uiso   1.00
H286   H     0.11479   0.03797   0.66868   0.00000  Uiso   1.00
H287   H     0.96440   0.11474   0.66871   0.00000  Uiso   1.00
O143   O     0.98067   0.15025   0.66890   0.00000  Uiso   1.00
O144   O     0.02176   0.15026   0.66889   0.00000  Uiso   1.00
H288   H     0.03802   0.11475   0.66868   0.00000  Uiso   1.00
Ni18   Ni    0.00118   0.00114   0.66838   0.00000  Uiso   1.00
Cu1    Cu    0.00028   0.50105   0.33316   0.00000  Uiso   1.00
Cu2    Cu    0.50107   0.00038   0.33316   0.00000  Uiso   1.00
Cu3    Cu    0.00171   0.50114   0.66924   0.00000  Uiso   1.00
Cu4    Cu    0.50118   0.00174   0.66925   0.00000  Uiso   1.00
Cu5    Cu    0.33309   0.00028   0.50114   0.00000  Uiso   1.00
Cu6    Cu    0.00030   0.33306   0.50113   0.00000  Uiso   1.00
Cu7    Cu    0.66916   0.00177   0.50126   0.00000  Uiso   1.00
Cu8    Cu    0.00170   0.66914   0.50127   0.00000  Uiso   1.00
Cu9    Cu    0.50108   0.33306   0.00040   0.00000  Uiso   1.00
Cu10   Cu    0.50117   0.66915   0.00186   0.00000  Uiso   1.00
Cu11   Cu    0.33309   0.50105   0.00048   0.00000  Uiso   1.00
Cu12   Cu    0.66916   0.50116   0.00184   0.00000  Uiso   1.00
Zn1    Zn    0.00104   0.33319   0.16710   0.00000  Uiso   1.00
Zn2    Zn    0.66892   0.00118   0.16723   0.00000  Uiso   1.00
Zn3    Zn    0.00115   0.66890   0.16724   0.00000  Uiso   1.00
Zn4    Zn    0.33319   0.00103   0.16711   0.00000  Uiso   1.00
Zn5    Zn    0.00128   0.66901   0.83529   0.00000  Uiso   1.00
Zn6    Zn    0.33332   0.00099   0.83517   0.00000  Uiso   1.00
Zn7    Zn    0.00103   0.33330   0.83515   0.00000  Uiso   1.00
Zn8    Zn    0.66907   0.00121   0.83529   0.00000  Uiso   1.00
Zn9    Zn    0.16705   0.00100   0.33327   0.00000  Uiso   1.00
Zn10   Zn    0.00104   0.16703   0.33324   0.00000  Uiso   1.00
Zn11   Zn    0.83510   0.00104   0.33342   0.00000  Uiso   1.00
Zn12   Zn    0.00102   0.83508   0.33343   0.00000  Uiso   1.00
Zn13   Zn    0.16715   0.00117   0.66897   0.00000  Uiso   1.00
Zn14   Zn    0.00122   0.16712   0.66896   0.00000  Uiso   1.00
Zn15   Zn    0.83521   0.00121   0.66913   0.00000  Uiso   1.00
Zn16   Zn    0.00122   0.83517   0.66916   0.00000  Uiso   1.00
Zn17   Zn    0.33319   0.16702   0.00106   0.00000  Uiso   1.00
Zn18   Zn    0.33332   0.83508   0.00116   0.00000  Uiso   1.00
Zn19   Zn    0.16705   0.33319   0.00107   0.00000  Uiso   1.00
Zn20   Zn    0.66893   0.16713   0.00129   0.00000  Uiso   1.00
Zn21   Zn    0.83520   0.66903   0.00127   0.00000  Uiso   1.00
Zn22   Zn    0.66907   0.83519   0.00130   0.00000  Uiso   1.00
Zn23   Zn    0.16715   0.66888   0.00133   0.00000  Uiso   1.00
Zn24   Zn    0.83510   0.33333   0.00112   0.00000  Uiso   1.00
loop_
_geom_bond_atom_site_label_1
_geom_bond_atom_site_label_2
_geom_bond_distance
_geom_bond_site_symmetry_2
_ccdc_geom_bond_type
C1     C2      1.412   .     A
C1     C6      1.395   .     A
C1     H1      1.084   .     S
C2     C3      1.432   .     A
C2     C37     1.403   .     A
C3     C4      1.411   .     A
C3     C40     1.403   .     A
C4     C5      1.394   .     A
C4     H2      1.084   .     S
C5     C6      1.358   .     A
C5     C8      1.376   .     A
C6     C7      1.377   .     A
C7     N1      1.359   .     A
C7     N8      1.338   .     A
N1     C8      1.359   .     A
N1     Ni1     1.895   .     S
C8     N2      1.338   .     A
N2     C9      1.338   .     A
C9     N3      1.359   .     A
C9     C12     1.377   .     A
N3     C10     1.359   .     A
N3     Ni1     1.895   .     S
C10    C11     1.377   .     A
C10    N5      1.338   .     A
C11    C12     1.359   .     A
C11    C20     1.394   .     A
C12    C17     1.394   .     A
N4     C13     1.359   .     A
N4     C16     1.359   .     A
N4     Ni1     1.895   .     S
C13    N5      1.338   .     A
C13    C14     1.377   .     A
C14    C15     1.359   .     A
C14    C24     1.394   .     A
C15    C16     1.377   .     A
C15    C21     1.394   .     A
C16    N7      1.338   .     A
C17    C18     1.411   .     A
C17    H3      1.084   .     S
C18    C19     1.435   .     A
C18    C41     1.405   .     A
C19    C20     1.411   .     A
C19    C44     1.405   .     A
C20    H4      1.084   .     S
C21    C22     1.411   .     A
C21    H5      1.084   .     S
C22    C23     1.435   .     A
C22    C45     1.405   .     A
C23    C24     1.411   .     A
C23    C48     1.405   .     A
C24    H6      1.084   .     S
N6     C25     1.359   .     A
N6     C28     1.360   .     A
N6     Ni1     1.895   .     S
C25    N7      1.338   .     A
C25    C26     1.376   .     A
C26    C27     1.358   .     A
C26    C32     1.394   .     A
C27    C28     1.377   .     A
C27    C29     1.395   .     A
C28    N8      1.338   .     A
C29    C30     1.412   .     A
C29    H7      1.084   .     S
C30    C31     1.432   .     A
C30    C33     1.403   .     A
C31    C32     1.411   .     A
C31    C36     1.403   .     A
C32    H8      1.084   .     S
C33    C34     1.397   .     A
C33    H9      1.084   .     S
C34    C35     1.412   .     A
C34    O1      1.396   .     S
C35    C36     1.397   .     A
C35    O2      1.395   .     S
C36    H10     1.084   .     S
C37    C38     1.397   .     A
C37    H11     1.084   .     S
C38    C39     1.412   .     A
C38    O3      1.396   .     S
C39    C40     1.397   .     A
C39    O4      1.395   .     S
C40    H12     1.084   .     S
C41    C42     1.396   .     A
C41    H13     1.083   .     S
C42    C43     1.374   .     A
C42    O5      1.381   .     S
C43    C44     1.396   .     A
C43    O6      1.381   .     S
C44    H14     1.083   .     S
C45    C46     1.396   .     A
C45    H15     1.083   .     S
C46    C47     1.374   .     A
C46    O7      1.381   .     S
C47    C48     1.396   .     A
C47    O8      1.381   .     S
C48    H16     1.083   .     S
O1     Zn1     1.801   .     S
O2     Zn1     1.800   .     S
O3     Zn10    1.801   .     S
O4     Zn10    1.800   .     S
O5     Cu6     1.812   .     S
O6     Cu6     1.812   .     S
O7     Cu1     1.812   .     S
O8     Cu1     1.812   .     S
C49    C50     1.412   .     A
C49    C54     1.394   .     A
C49    H17     1.084   .     S
C50    C51     1.432   .     A
C50    C85     1.403   .     A
C51    C52     1.411   .     A
C51    C88     1.403   .     A
C52    C53     1.394   .     A
C52    H18     1.084   .     S
C53    C54     1.358   .     A
C53    C56     1.376   .     A
C54    C55     1.377   .     A
C55    N9      1.359   .     A
C55    N16     1.338   .     A
N9     C56     1.359   .     A
N9     Ni2     1.895   .     S
C56    N10     1.338   .     A
N10    C57     1.338   .     A
C57    N11     1.359   .     A
C57    C60     1.377   .     A
N11    C58     1.359   .     A
N11    Ni2     1.895   .     S
C58    C59     1.377   .     A
C58    N13     1.338   .     A
C59    C60     1.359   .     A
C59    C68     1.394   .     A
C60    C65     1.394   .     A
N12    C61     1.359   .     A
N12    C64     1.359   .     A
N12    Ni2     1.895   .     S
C61    N13     1.338   .     A
C61    C62     1.377   .     A
C62    C63     1.359   .     A
C62    C72     1.394   .     A
C63    C64     1.377   .     A
C63    C69     1.394   .     A
C64    N15     1.338   .     A
C65    C66     1.411   .     A
C65    H19     1.084   .     S
C66    C67     1.435   .     A
C66    C89     1.405   .     A
C67    C68     1.411   .     A
C67    C92     1.405   .     A
C68    H20     1.084   .     S
C69    C70     1.411   .     A
C69    H21     1.084   .     S
C70    C71     1.435   .     A
C70    C93     1.405   .     A
C71    C72     1.411   .     A
C71    C96     1.405   .     A
C72    H22     1.084   .     S
N14    C73     1.359   .     A
N14    C76     1.359   .     A
N14    Ni2     1.895   .     S
C73    N15     1.338   .     A
C73    C74     1.376   .     A
C74    C75     1.358   .     A
C74    C80     1.394   .     A
C75    C76     1.377   .     A
C75    C77     1.394   .     A
C76    N16     1.338   .     A
C77    C78     1.412   .     A
C77    H23     1.084   .     S
C78    C79     1.432   .     A
C78    C81     1.403   .     A
C79    C80     1.411   .     A
C79    C84     1.403   .     A
C80    H24     1.084   .     S
C81    C82     1.397   .     A
C81    H25     1.084   .     S
C82    C83     1.412   .     A
C82    O9      1.396   .     S
C83    C84     1.397   .     A
C83    O10     1.395   .     S
C84    H26     1.084   .     S
C85    C86     1.397   .     A
C85    H27     1.084   .     S
C86    C87     1.412   .     A
C86    O11     1.396   .     S
C87    C88     1.397   .     A
C87    O12     1.395   .     S
C88    H28     1.084   .     S
C89    C90     1.396   .     A
C89    H29     1.083   .     S
C90    C91     1.374   .     A
C90    O13     1.381   .     S
C91    C92     1.396   .     A
C91    O14     1.381   .     S
C92    H30     1.083   .     S
C93    C94     1.396   .     A
C93    H31     1.083   .     S
C94    C95     1.374   .     A
C94    O15     1.381   .     S
C95    C96     1.396   .     A
C95    O16     1.381   .     S
C96    H32     1.083   .     S
O9     Zn11    1.801   .     S
O10    Zn11    1.800   .     S
O11    Zn2     1.801   .     S
O12    Zn2     1.800   .     S
O13    Cu2     1.812   .     S
O14    Cu2     1.812   .     S
O15    Cu7     1.812   .     S
O16    Cu7     1.812   .     S
C97    C98     1.412   .     A
C97    C102    1.394   .     A
C97    H33     1.084   .     S
C98    C99     1.432   .     A
C98    C133    1.403   .     A
C99    C100    1.411   .     A
C99    C136    1.403   .     A
C100   C101    1.394   .     A
C100   H34     1.084   .     S
C101   C102    1.358   .     A
C101   C104    1.376   .     A
C102   C103    1.377   .     A
C103   N17     1.359   .     A
C103   N24     1.338   .     A
N17    C104    1.359   .     A
N17    Ni3     1.895   .     S
C104   N18     1.338   .     A
N18    C105    1.338   .     A
C105   N19     1.359   .     A
C105   C108    1.377   .     A
N19    C106    1.359   .     A
N19    Ni3     1.895   .     S
C106   C107    1.377   .     A
C106   N21     1.338   .     A
C107   C108    1.359   .     A
C107   C116    1.394   .     A
C108   C113    1.394   .     A
N20    C109    1.359   .     A
N20    C112    1.359   .     A
N20    Ni3     1.895   .     S
C109   N21     1.338   .     A
C109   C110    1.377   .     A
C110   C111    1.359   .     A
C110   C120    1.394   .     A
C111   C112    1.377   .     A
C111   C117    1.394   .     A
C112   N23     1.338   .     A
C113   C114    1.411   .     A
C113   H35     1.084   .     S
C114   C115    1.435   .     A
C114   C137    1.405   .     A
C115   C116    1.411   .     A
C115   C140    1.405   .     A
C116   H36     1.084   .     S
C117   C118    1.411   .     A
C117   H37     1.084   .     S
C118   C119    1.435   .     A
C118   C141    1.405   .     A
C119   C120    1.411   .     A
C119   C144    1.405   .     A
C120   H38     1.084   .     S
N22    C121    1.359   .     A
N22    C124    1.359   .     A
N22    Ni3     1.895   .     S
C121   N23     1.338   .     A
C121   C122    1.376   .     A
C122   C123    1.358   .     A
C122   C128    1.394   .     A
C123   C124    1.377   .     A
C123   C125    1.394   .     A
C124   N24     1.338   .     A
C125   C126    1.412   .     A
C125   H39     1.084   .     S
C126   C127    1.432   .     A
C126   C129    1.403   .     A
C127   C128    1.411   .     A
C127   C132    1.403   .     A
C128   H40     1.084   .     S
C129   C130    1.397   .     A
C129   H41     1.084   .     S
C130   C131    1.412   .     A
C130   O17     1.396   .     S
C131   C132    1.397   .     A
C131   O18     1.395   .     S
C132   H42     1.084   .     S
C133   C134    1.397   .     A
C133   H43     1.084   .     S
C134   C135    1.412   .     A
C134   O19     1.396   .     S
C135   C136    1.397   .     A
C135   O20     1.395   .     S
C136   H44     1.084   .     S
C137   C138    1.396   .     A
C137   H45     1.083   .     S
C138   C139    1.374   .     A
C138   O21     1.381   .     S
C139   C140    1.396   .     A
C139   O22     1.381   .     S
C140   H46     1.083   .     S
C141   C142    1.396   .     A
C141   H47     1.083   .     S
C142   C143    1.374   .     A
C142   O23     1.381   .     S
C143   C144    1.396   .     A
C143   O24     1.381   .     S
C144   H48     1.083   .     S
O17    Zn3     1.801   .     S
O18    Zn3     1.800   .     S
O19    Zn12    1.801   .     S
O20    Zn12    1.800   .     S
O21    Cu8     1.812   .     S
O22    Cu8     1.812   .     S
O23    Cu1     1.812   .     S
O24    Cu1     1.812   .     S
C145   C146    1.412   .     A
C145   C150    1.395   .     A
C145   H49     1.084   .     S
C146   C147    1.432   .     A
C146   C181    1.403   .     A
C147   C148    1.411   .     A
C147   C184    1.403   .     A
C148   C149    1.394   .     A
C148   H50     1.084   .     S
C149   C150    1.358   .     A
C149   C152    1.376   .     A
C150   C151    1.377   .     A
C151   N25     1.359   .     A
C151   N32     1.338   .     A
N25    C152    1.359   .     A
N25    Ni4     1.895   .     S
C152   N26     1.338   .     A
N26    C153    1.338   .     A
C153   N27     1.359   .     A
C153   C156    1.377   .     A
N27    C154    1.359   .     A
N27    Ni4     1.895   .     S
C154   C155    1.377   .     A
C154   N29     1.338   .     A
C155   C156    1.359   .     A
C155   C164    1.394   .     A
C156   C161    1.394   .     A
N28    C157    1.359   .     A
N28    C160    1.359   .     A
N28    Ni4     1.895   .     S
C157   N29     1.338   .     A
C157   C158    1.377   .     A
C158   C159    1.359   .     A
C158   C168    1.394   .     A
C159   C160    1.377   .     A
C159   C165    1.394   .     A
C160   N31     1.338   .     A
C161   C162    1.411   .     A
C161   H51     1.084   .     S
C162   C163    1.435   .     A
C162   C185    1.405   .     A
C163   C164    1.411   .     A
C163   C188    1.405   .     A
C164   H52     1.084   .     S
C165   C166    1.411   .     A
C165   H53     1.084   .     S
C166   C167    1.435   .     A
C166   C189    1.405   .     A
C167   C168    1.411   .     A
C167   C192    1.405   .     A
C168   H54     1.084   .     S
N30    C169    1.359   .     A
N30    C172    1.360   .     A
N30    Ni4     1.895   .     S
C169   N31     1.338   .     A
C169   C170    1.376   .     A
C170   C171    1.358   .     A
C170   C176    1.394   .     A
C171   C172    1.377   .     A
C171   C173    1.395   .     A
C172   N32     1.338   .     A
C173   C174    1.412   .     A
C173   H55     1.084   .     S
C174   C175    1.432   .     A
C174   C177    1.403   .     A
C175   C176    1.411   .     A
C175   C180    1.403   .     A
C176   H56     1.084   .     S
C177   C178    1.397   .     A
C177   H57     1.084   .     S
C178   C179    1.412   .     A
C178   O25     1.396   .     S
C179   C180    1.397   .     A
C179   O26     1.395   .     S
C180   H58     1.084   .     S
C181   C182    1.397   .     A
C181   H59     1.084   .     S
C182   C183    1.412   .     A
C182   O27     1.396   .     S
C183   C184    1.397   .     A
C183   O28     1.395   .     S
C184   H60     1.084   .     S
C185   C186    1.396   .     A
C185   H61     1.083   .     S
C186   C187    1.374   .     A
C186   O29     1.381   .     S
C187   C188    1.396   .     A
C187   O30     1.381   .     S
C188   H62     1.083   .     S
C189   C190    1.396   .     A
C189   H63     1.083   .     S
C190   C191    1.374   .     A
C190   O31     1.381   .     S
C191   C192    1.396   .     A
C191   O32     1.381   .     S
C192   H64     1.083   .     S
O25    Zn9     1.801   .     S
O26    Zn9     1.800   .     S
O27    Zn4     1.801   .     S
O28    Zn4     1.800   .     S
O29    Cu2     1.812   .     S
O30    Cu2     1.812   .     S
O31    Cu5     1.812   .     S
O32    Cu5     1.812   .     S
C193   C194    1.412   .     A
C193   C198    1.394   .     A
C193   H65     1.084   .     S
C194   C195    1.432   .     A
C194   C229    1.403   .     A
C195   C196    1.411   .     A
C195   C232    1.403   .     A
C196   C197    1.394   .     A
C196   H66     1.084   .     S
C197   C198    1.358   .     A
C197   C200    1.376   .     A
C198   C199    1.377   .     A
C199   N33     1.359   .     A
C199   N40     1.338   .     A
N33    C200    1.359   .     A
N33    Ni5     1.895   .     S
C200   N34     1.338   .     A
N34    C201    1.338   .     A
C201   N35     1.359   .     A
C201   C204    1.377   .     A
N35    C202    1.359   .     A
N35    Ni5     1.895   .     S
C202   C203    1.377   .     A
C202   N37     1.338   .     A
C203   C204    1.359   .     A
C203   C212    1.394   .     A
C204   C209    1.394   .     A
N36    C205    1.359   .     A
N36    C208    1.359   .     A
N36    Ni5     1.895   .     S
C205   N37     1.338   .     A
C205   C206    1.377   .     A
C206   C207    1.359   .     A
C206   C216    1.394   .     A
C207   C208    1.377   .     A
C207   C213    1.394   .     A
C208   N39     1.338   .     A
C209   C210    1.411   .     A
C209   H67     1.084   .     S
C210   C211    1.435   .     A
C210   C233    1.405   .     A
C211   C212    1.411   .     A
C211   C236    1.405   .     A
C212   H68     1.084   .     S
C213   C214    1.411   .     A
C213   H69     1.084   .     S
C214   C215    1.435   .     A
C214   C237    1.405   .     A
C215   C216    1.411   .     A
C215   C240    1.405   .     A
C216   H70     1.084   .     S
N38    C217    1.359   .     A
N38    C220    1.359   .     A
N38    Ni5     1.895   .     S
C217   N39     1.338   .     A
C217   C218    1.376   .     A
C218   C219    1.358   .     A
C218   C224    1.394   .     A
C219   C220    1.377   .     A
C219   C221    1.395   .     A
C220   N40     1.338   .     A
C221   C222    1.412   .     A
C221   H71     1.084   .     S
C222   C223    1.432   .     A
C222   C225    1.403   .     A
C223   C224    1.411   .     A
C223   C228    1.403   .     A
C224   H72     1.084   .     S
C225   C226    1.397   .     A
C225   H73     1.084   .     S
C226   C227    1.412   .     A
C226   O33     1.396   .     S
C227   C228    1.397   .     A
C227   O34     1.395   .     S
C228   H74     1.084   .     S
C229   C230    1.397   .     A
C229   H75     1.084   .     S
C230   C231    1.412   .     A
C230   O35     1.396   .     S
C231   C232    1.397   .     A
C231   O36     1.395   .     S
C232   H76     1.084   .     S
C233   C234    1.396   .     A
C233   H77     1.083   .     S
C234   C235    1.374   .     A
C234   O37     1.381   .     S
C235   C236    1.396   .     A
C235   O38     1.381   .     S
C236   H78     1.083   .     S
C237   C238    1.396   .     A
C237   H79     1.083   .     S
C238   C239    1.374   .     A
C238   O39     1.381   .     S
C239   C240    1.396   .     A
C239   O40     1.381   .     S
C240   H80     1.083   .     S
O33    Zn16    1.801   .     S
O34    Zn16    1.800   .     S
O35    Zn5     1.801   .     S
O36    Zn5     1.800   .     S
O37    Cu3     1.812   .     S
O38    Cu3     1.812   .     S
O39    Cu8     1.812   .     S
O40    Cu8     1.812   .     S
C241   C242    1.412   .     A
C241   C246    1.394   .     A
C241   H81     1.084   .     S
C242   C243    1.432   .     A
C242   C277    1.403   .     A
C243   C244    1.411   .     A
C243   C280    1.403   .     A
C244   C245    1.394   .     A
C244   H82     1.084   .     S
C245   C246    1.358   .     A
C245   C248    1.376   .     A
C246   C247    1.377   .     A
C247   N41     1.359   .     A
C247   N48     1.338   .     A
N41    C248    1.359   .     A
N41    Ni6     1.895   .     S
C248   N42     1.338   .     A
N42    C249    1.338   .     A
C249   N43     1.359   .     A
C249   C252    1.377   .     A
N43    C250    1.359   .     A
N43    Ni6     1.895   .     S
C250   C251    1.377   .     A
C250   N45     1.338   .     A
C251   C252    1.359   .     A
C251   C260    1.394   .     A
C252   C257    1.394   .     A
N44    C253    1.359   .     A
N44    C256    1.359   .     A
N44    Ni6     1.895   .     S
C253   N45     1.338   .     A
C253   C254    1.377   .     A
C254   C255    1.359   .     A
C254   C264    1.394   .     A
C255   C256    1.377   .     A
C255   C261    1.394   .     A
C256   N47     1.338   .     A
C257   C258    1.411   .     A
C257   H83     1.084   .     S
C258   C259    1.435   .     A
C258   C281    1.405   .     A
C259   C260    1.411   .     A
C259   C284    1.405   .     A
C260   H84     1.084   .     S
C261   C262    1.411   .     A
C261   H85     1.084   .     S
C262   C263    1.435   .     A
C262   C285    1.405   .     A
C263   C264    1.411   .     A
C263   C288    1.405   .     A
C264   H86     1.084   .     S
N46    C265    1.359   .     A
N46    C268    1.359   .     A
N46    Ni6     1.895   .     S
C265   N47     1.338   .     A
C265   C266    1.376   .     A
C266   C267    1.358   .     A
C266   C272    1.394   .     A
C267   C268    1.377   .     A
C267   C269    1.394   .     A
C268   N48     1.338   .     A
C269   C270    1.412   .     A
C269   H87     1.084   .     S
C270   C271    1.432   .     A
C270   C273    1.403   .     A
C271   C272    1.411   .     A
C271   C276    1.403   .     A
C272   H88     1.084   .     S
C273   C274    1.397   .     A
C273   H89     1.084   .     S
C274   C275    1.412   .     A
C274   O41     1.396   .     S
C275   C276    1.397   .     A
C275   O42     1.395   .     S
C276   H90     1.084   .     S
C277   C278    1.397   .     A
C277   H91     1.084   .     S
C278   C279    1.412   .     A
C278   O43     1.396   .     S
C279   C280    1.397   .     A
C279   O44     1.395   .     S
C280   H92     1.084   .     S
C281   C282    1.396   .     A
C281   H93     1.083   .     S
C282   C283    1.374   .     A
C282   O45     1.381   .     S
C283   C284    1.396   .     A
C283   O46     1.381   .     S
C284   H94     1.083   .     S
C285   C286    1.396   .     A
C285   H95     1.083   .     S
C286   C287    1.374   .     A
C286   O47     1.381   .     S
C287   C288    1.396   .     A
C287   O48     1.381   .     S
C288   H96     1.083   .     S
O41    Zn13    1.801   .     S
O42    Zn13    1.800   .     S
O43    Zn6     1.801   .     S
O44    Zn6     1.800   .     S
O45    Cu4     1.812   .     S
O46    Cu4     1.812   .     S
O47    Cu5     1.812   .     S
O48    Cu5     1.812   .     S
C289   C290    1.412   .     A
C289   C294    1.394   .     A
C289   H97     1.084   .     S
C290   C291    1.432   .     A
C290   C325    1.403   .     A
C291   C292    1.411   .     A
C291   C328    1.403   .     A
C292   C293    1.394   .     A
C292   H98     1.084   .     S
C293   C294    1.358   .     A
C293   C296    1.376   .     A
C294   C295    1.377   .     A
C295   N49     1.359   .     A
C295   N56     1.338   .     A
N49    C296    1.359   .     A
N49    Ni7     1.895   .     S
C296   N50     1.338   .     A
N50    C297    1.338   .     A
C297   N51     1.359   .     A
C297   C300    1.377   .     A
N51    C298    1.359   .     A
N51    Ni7     1.895   .     S
C298   C299    1.377   .     A
C298   N53     1.338   .     A
C299   C300    1.359   .     A
C299   C308    1.394   .     A
C300   C305    1.394   .     A
N52    C301    1.359   .     A
N52    C304    1.359   .     A
N52    Ni7     1.895   .     S
C301   N53     1.338   .     A
C301   C302    1.377   .     A
C302   C303    1.359   .     A
C302   C312    1.394   .     A
C303   C304    1.377   .     A
C303   C309    1.394   .     A
C304   N55     1.338   .     A
C305   C306    1.411   .     A
C305   H99     1.084   .     S
C306   C307    1.435   .     A
C306   C329    1.405   .     A
C307   C308    1.411   .     A
C307   C332    1.405   .     A
C308   H100    1.084   .     S
C309   C310    1.411   .     A
C309   H101    1.084   .     S
C310   C311    1.435   .     A
C310   C333    1.405   .     A
C311   C312    1.411   .     A
C311   C336    1.405   .     A
C312   H102    1.084   .     S
N54    C313    1.359   .     A
N54    C316    1.359   .     A
N54    Ni7     1.895   .     S
C313   N55     1.338   .     A
C313   C314    1.376   .     A
C314   C315    1.358   .     A
C314   C320    1.394   .     A
C315   C316    1.377   .     A
C315   C317    1.394   .     A
C316   N56     1.338   .     A
C317   C318    1.412   .     A
C317   H103    1.084   .     S
C318   C319    1.432   .     A
C318   C321    1.403   .     A
C319   C320    1.411   .     A
C319   C324    1.403   .     A
C320   H104    1.084   .     S
C321   C322    1.397   .     A
C321   H105    1.084   .     S
C322   C323    1.412   .     A
C322   O49     1.396   .     S
C323   C324    1.397   .     A
C323   O50     1.395   .     S
C324   H106    1.084   .     S
C325   C326    1.397   .     A
C325   H107    1.084   .     S
C326   C327    1.412   .     A
C326   O51     1.396   .     S
C327   C328    1.397   .     A
C327   O52     1.395   .     S
C328   H108    1.084   .     S
C329   C330    1.396   .     A
C329   H109    1.083   .     S
C330   C331    1.374   .     A
C330   O53     1.381   .     S
C331   C332    1.396   .     A
C331   O54     1.381   .     S
C332   H110    1.083   .     S
C333   C334    1.396   .     A
C333   H111    1.083   .     S
C334   C335    1.374   .     A
C334   O55     1.381   .     S
C335   C336    1.396   .     A
C335   O56     1.381   .     S
C336   H112    1.083   .     S
O49    Zn7     1.801   .     S
O50    Zn7     1.800   .     S
O51    Zn14    1.801   .     S
O52    Zn14    1.800   .     S
O53    Cu6     1.812   .     S
O54    Cu6     1.812   .     S
O55    Cu3     1.812   .     S
O56    Cu3     1.812   .     S
C337   C338    1.412   .     A
C337   C342    1.395   .     A
C337   H113    1.084   .     S
C338   C339    1.432   .     A
C338   C373    1.403   .     A
C339   C340    1.411   .     A
C339   C376    1.403   .     A
C340   C341    1.394   .     A
C340   H114    1.084   .     S
C341   C342    1.358   .     A
C341   C344    1.376   .     A
C342   C343    1.377   .     A
C343   N57     1.359   .     A
C343   N64     1.338   .     A
N57    C344    1.359   .     A
N57    Ni8     1.895   .     S
C344   N58     1.338   .     A
N58    C345    1.338   .     A
C345   N59     1.359   .     A
C345   C348    1.377   .     A
N59    C346    1.359   .     A
N59    Ni8     1.895   .     S
C346   C347    1.377   .     A
C346   N61     1.338   .     A
C347   C348    1.359   .     A
C347   C356    1.394   .     A
C348   C353    1.394   .     A
N60    C349    1.359   .     A
N60    C352    1.359   .     A
N60    Ni8     1.895   .     S
C349   N61     1.338   .     A
C349   C350    1.377   .     A
C350   C351    1.359   .     A
C350   C360    1.394   .     A
C351   C352    1.377   .     A
C351   C357    1.394   .     A
C352   N63     1.338   .     A
C353   C354    1.411   .     A
C353   H115    1.084   .     S
C354   C355    1.435   .     A
C354   C377    1.405   .     A
C355   C356    1.411   .     A
C355   C380    1.405   .     A
C356   H116    1.084   .     S
C357   C358    1.411   .     A
C357   H117    1.084   .     S
C358   C359    1.435   .     A
C358   C381    1.405   .     A
C359   C360    1.411   .     A
C359   C384    1.405   .     A
C360   H118    1.084   .     S
N62    C361    1.359   .     A
N62    C364    1.359   .     A
N62    Ni8     1.895   .     S
C361   N63     1.338   .     A
C361   C362    1.376   .     A
C362   C363    1.358   .     A
C362   C368    1.394   .     A
C363   C364    1.377   .     A
C363   C365    1.395   .     A
C364   N64     1.338   .     A
C365   C366    1.412   .     A
C365   H119    1.084   .     S
C366   C367    1.432   .     A
C366   C369    1.403   .     A
C367   C368    1.411   .     A
C367   C372    1.403   .     A
C368   H120    1.084   .     S
C369   C370    1.397   .     A
C369   H121    1.084   .     S
C370   C371    1.412   .     A
C370   O57     1.396   .     S
C371   C372    1.397   .     A
C371   O58     1.395   .     S
C372   H122    1.084   .     S
C373   C374    1.397   .     A
C373   H123    1.084   .     S
C374   C375    1.412   .     A
C374   O59     1.396   .     S
C375   C376    1.397   .     A
C375   O60     1.395   .     S
C376   H124    1.084   .     S
C377   C378    1.396   .     A
C377   H125    1.083   .     S
C378   C379    1.374   .     A
C378   O61     1.381   .     S
C379   C380    1.396   .     A
C379   O62     1.381   .     S
C380   H126    1.083   .     S
C381   C382    1.396   .     A
C381   H127    1.083   .     S
C382   C383    1.374   .     A
C382   O63     1.381   .     S
C383   C384    1.396   .     A
C383   O64     1.381   .     S
C384   H128    1.083   .     S
O57    Zn15    1.801   .     S
O58    Zn15    1.800   .     S
O59    Zn8     1.801   .     S
O60    Zn8     1.800   .     S
O61    Cu4     1.812   .     S
O62    Cu4     1.812   .     S
O63    Cu7     1.812   .     S
O64    Cu7     1.812   .     S
C385   C386    1.412   .     A
C385   C390    1.395   .     A
C385   H129    1.084   .     S
C386   C387    1.432   .     A
C386   C421    1.403   .     A
C387   C388    1.411   .     A
C387   C424    1.403   .     A
C388   C389    1.394   .     A
C388   H130    1.084   .     S
C389   C390    1.358   .     A
C389   C392    1.376   .     A
C390   C391    1.377   .     A
C391   N65     1.359   .     A
C391   N72     1.338   .     A
N65    C392    1.359   .     A
N65    Ni9     1.895   .     S
C392   N66     1.338   .     A
N66    C393    1.338   .     A
C393   N67     1.359   .     A
C393   C396    1.377   .     A
N67    C394    1.359   .     A
N67    Ni9     1.895   .     S
C394   C395    1.377   .     A
C394   N69     1.338   .     A
C395   C396    1.359   .     A
C395   C404    1.394   .     A
C396   C401    1.394   .     A
N68    C397    1.359   .     A
N68    C400    1.359   .     A
N68    Ni9     1.895   .     S
C397   N69     1.338   .     A
C397   C398    1.377   .     A
C398   C399    1.359   .     A
C398   C408    1.394   .     A
C399   C400    1.377   .     A
C399   C405    1.394   .     A
C400   N71     1.338   .     A
C401   C402    1.411   .     A
C401   H131    1.084   .     S
C402   C403    1.435   .     A
C402   C425    1.405   .     A
C403   C404    1.411   .     A
C403   C428    1.405   .     A
C404   H132    1.084   .     S
C405   C406    1.411   .     A
C405   H133    1.084   .     S
C406   C407    1.435   .     A
C406   C429    1.405   .     A
C407   C408    1.411   .     A
C407   C432    1.405   .     A
C408   H134    1.084   .     S
N70    C409    1.359   .     A
N70    C412    1.359   .     A
N70    Ni9     1.895   .     S
C409   N71     1.338   .     A
C409   C410    1.376   .     A
C410   C411    1.358   .     A
C410   C416    1.394   .     A
C411   C412    1.377   .     A
C411   C413    1.395   .     A
C412   N72     1.338   .     A
C413   C414    1.412   .     A
C413   H135    1.084   .     S
C414   C415    1.432   .     A
C414   C417    1.403   .     A
C415   C416    1.411   .     A
C415   C420    1.403   .     A
C416   H136    1.084   .     S
C417   C418    1.397   .     A
C417   H137    1.084   .     S
C418   C419    1.412   .     A
C418   O65     1.396   .     S
C419   C420    1.397   .     A
C419   O66     1.395   .     S
C420   H138    1.084   .     S
C421   C422    1.397   .     A
C421   H139    1.084   .     S
C422   C423    1.412   .     A
C422   O67     1.396   .     S
C423   C424    1.397   .     A
C423   O68     1.395   .     S
C424   H140    1.084   .     S
C425   C426    1.396   .     A
C425   H141    1.083   .     S
C426   C427    1.374   .     A
C426   O69     1.381   .     S
C427   C428    1.396   .     A
C427   O70     1.381   .     S
C428   H142    1.083   .     S
C429   C430    1.396   .     A
C429   H143    1.083   .     S
C430   C431    1.374   .     A
C430   O71     1.381   .     S
C431   C432    1.396   .     A
C431   O72     1.381   .     S
C432   H144    1.083   .     S
O65    Zn19    1.801   .     S
O66    Zn19    1.800   .     S
O67    Zn17    1.801   .     S
O68    Zn17    1.800   .     S
O69    Cu9     1.812   .     S
O70    Cu9     1.812   .     S
O71    Cu11    1.812   .     S
O72    Cu11    1.812   .     S
C433   C434    1.412   .     A
C433   C438    1.394   .     A
C433   H145    1.084   .     S
C434   C435    1.432   .     A
C434   C469    1.403   .     A
C435   C436    1.411   .     A
C435   C472    1.403   .     A
C436   C437    1.394   .     A
C436   H146    1.084   .     S
C437   C438    1.358   .     A
C437   C440    1.376   .     A
C438   C439    1.377   .     A
C439   N73     1.359   .     A
C439   N80     1.338   .     A
N73    C440    1.359   .     A
N73    Ni10    1.895   .     S
C440   N74     1.338   .     A
N74    C441    1.338   .     A
C441   N75     1.359   .     A
C441   C444    1.377   .     A
N75    C442    1.359   .     A
N75    Ni10    1.895   .     S
C442   C443    1.377   .     A
C442   N77     1.338   .     A
C443   C444    1.359   .     A
C443   C452    1.394   .     A
C444   C449    1.394   .     A
N76    C445    1.359   .     A
N76    C448    1.359   .     A
N76    Ni10    1.895   .     S
C445   N77     1.338   .     A
C445   C446    1.377   .     A
C446   C447    1.359   .     A
C446   C456    1.394   .     A
C447   C448    1.377   .     A
C447   C453    1.394   .     A
C448   N79     1.338   .     A
C449   C450    1.411   .     A
C449   H147    1.084   .     S
C450   C451    1.435   .     A
C450   C473    1.405   .     A
C451   C452    1.411   .     A
C451   C476    1.405   .     A
C452   H148    1.084   .     S
C453   C454    1.411   .     A
C453   H149    1.084   .     S
C454   C455    1.435   .     A
C454   C477    1.405   .     A
C455   C456    1.411   .     A
C455   C480    1.405   .     A
C456   H150    1.084   .     S
N78    C457    1.359   .     A
N78    C460    1.359   .     A
N78    Ni10    1.895   .     S
C457   N79     1.338   .     A
C457   C458    1.376   .     A
C458   C459    1.358   .     A
C458   C464    1.394   .     A
C459   C460    1.377   .     A
C459   C461    1.394   .     A
C460   N80     1.338   .     A
C461   C462    1.412   .     A
C461   H151    1.084   .     S
C462   C463    1.432   .     A
C462   C465    1.403   .     A
C463   C464    1.411   .     A
C463   C468    1.403   .     A
C464   H152    1.084   .     S
C465   C466    1.397   .     A
C465   H153    1.084   .     S
C466   C467    1.412   .     A
C466   O73     1.396   .     S
C467   C468    1.397   .     A
C467   O74     1.395   .     S
C468   H154    1.084   .     S
C469   C470    1.397   .     A
C469   H155    1.084   .     S
C470   C471    1.412   .     A
C470   O75     1.396   .     S
C471   C472    1.397   .     A
C471   O76     1.395   .     S
C472   H156    1.084   .     S
C473   C474    1.396   .     A
C473   H157    1.083   .     S
C474   C475    1.374   .     A
C474   O77     1.381   .     S
C475   C476    1.396   .     A
C475   O78     1.381   .     S
C476   H158    1.083   .     S
C477   C478    1.396   .     A
C477   H159    1.083   .     S
C478   C479    1.374   .     A
C478   O79     1.381   .     S
C479   C480    1.396   .     A
C479   O80     1.381   .     S
C480   H160    1.083   .     S
O73    Zn23    1.801   .     S
O74    Zn23    1.800   .     S
O75    Zn18    1.801   .     S
O76    Zn18    1.800   .     S
O77    Cu10    1.812   .     S
O78    Cu10    1.812   .     S
O79    Cu11    1.812   .     S
O80    Cu11    1.812   .     S
C481   C482    1.412   .     A
C481   C486    1.394   .     A
C481   H161    1.084   .     S
C482   C483    1.432   .     A
C482   C517    1.403   .     A
C483   C484    1.411   .     A
C483   C520    1.403   .     A
C484   C485    1.394   .     A
C484   H162    1.084   .     S
C485   C486    1.358   .     A
C485   C488    1.376   .     A
C486   C487    1.377   .     A
C487   N81     1.359   .     A
C487   N88     1.338   .     A
N81    C488    1.359   .     A
N81    Ni11    1.895   .     S
C488   N82     1.338   .     A
N82    C489    1.338   .     A
C489   N83     1.359   .     A
C489   C492    1.377   .     A
N83    C490    1.359   .     A
N83    Ni11    1.895   .     S
C490   C491    1.377   .     A
C490   N85     1.338   .     A
C491   C492    1.359   .     A
C491   C500    1.394   .     A
C492   C497    1.394   .     A
N84    C493    1.359   .     A
N84    C496    1.359   .     A
N84    Ni11    1.895   .     S
C493   N85     1.338   .     A
C493   C494    1.377   .     A
C494   C495    1.359   .     A
C494   C504    1.394   .     A
C495   C496    1.377   .     A
C495   C501    1.394   .     A
C496   N87     1.338   .     A
C497   C498    1.411   .     A
C497   H163    1.084   .     S
C498   C499    1.435   .     A
C498   C521    1.405   .     A
C499   C500    1.411   .     A
C499   C524    1.405   .     A
C500   H164    1.084   .     S
C501   C502    1.411   .     A
C501   H165    1.084   .     S
C502   C503    1.435   .     A
C502   C525    1.405   .     A
C503   C504    1.411   .     A
C503   C528    1.405   .     A
C504   H166    1.084   .     S
N86    C505    1.359   .     A
N86    C508    1.359   .     A
N86    Ni11    1.895   .     S
C505   N87     1.338   .     A
C505   C506    1.376   .     A
C506   C507    1.358   .     A
C506   C512    1.394   .     A
C507   C508    1.377   .     A
C507   C509    1.394   .     A
C508   N88     1.338   .     A
C509   C510    1.412   .     A
C509   H167    1.084   .     S
C510   C511    1.432   .     A
C510   C513    1.403   .     A
C511   C512    1.411   .     A
C511   C516    1.403   .     A
C512   H168    1.084   .     S
C513   C514    1.397   .     A
C513   H169    1.084   .     S
C514   C515    1.412   .     A
C514   O81     1.396   .     S
C515   C516    1.397   .     A
C515   O82     1.395   .     S
C516   H170    1.084   .     S
C517   C518    1.397   .     A
C517   H171    1.084   .     S
C518   C519    1.412   .     A
C518   O83     1.396   .     S
C519   C520    1.397   .     A
C519   O84     1.395   .     S
C520   H172    1.084   .     S
C521   C522    1.396   .     A
C521   H173    1.083   .     S
C522   C523    1.374   .     A
C522   O85     1.381   .     S
C523   C524    1.396   .     A
C523   O86     1.381   .     S
C524   H174    1.083   .     S
C525   C526    1.396   .     A
C525   H175    1.083   .     S
C526   C527    1.374   .     A
C526   O87     1.381   .     S
C527   C528    1.396   .     A
C527   O88     1.381   .     S
C528   H176    1.083   .     S
O81    Zn24    1.801   .     S
O82    Zn24    1.800   .     S
O83    Zn20    1.801   .     S
O84    Zn20    1.800   .     S
O85    Cu9     1.812   .     S
O86    Cu9     1.812   .     S
O87    Cu12    1.812   .     S
O88    Cu12    1.812   .     S
C529   C530    1.412   .     A
C529   C534    1.395   .     A
C529   H177    1.084   .     S
C530   C531    1.432   .     A
C530   C565    1.403   .     A
C531   C532    1.411   .     A
C531   C568    1.403   .     A
C532   C533    1.394   .     A
C532   H178    1.084   .     S
C533   C534    1.358   .     A
C533   C536    1.376   .     A
C534   C535    1.377   .     A
C535   N89     1.359   .     A
C535   N96     1.338   .     A
N89    C536    1.359   .     A
N89    Ni12    1.895   .     S
C536   N90     1.338   .     A
N90    C537    1.338   .     A
C537   N91     1.359   .     A
C537   C540    1.377   .     A
N91    C538    1.359   .     A
N91    Ni12    1.895   .     S
C538   C539    1.377   .     A
C538   N93     1.338   .     A
C539   C540    1.359   .     A
C539   C548    1.394   .     A
C540   C545    1.394   .     A
N92    C541    1.359   .     A
N92    C544    1.359   .     A
N92    Ni12    1.895   .     S
C541   N93     1.338   .     A
C541   C542    1.377   .     A
C542   C543    1.359   .     A
C542   C552    1.394   .     A
C543   C544    1.377   .     A
C543   C549    1.394   .     A
C544   N95     1.338   .     A
C545   C546    1.411   .     A
C545   H179    1.084   .     S
C546   C547    1.435   .     A
C546   C569    1.405   .     A
C547   C548    1.411   .     A
C547   C572    1.405   .     A
C548   H180    1.084   .     S
C549   C550    1.411   .     A
C549   H181    1.084   .     S
C550   C551    1.435   .     A
C550   C573    1.405   .     A
C551   C552    1.411   .     A
C551   C576    1.405   .     A
C552   H182    1.084   .     S
N94    C553    1.359   .     A
N94    C556    1.359   .     A
N94    Ni12    1.895   .     S
C553   N95     1.338   .     A
C553   C554    1.376   .     A
C554   C555    1.358   .     A
C554   C560    1.394   .     A
C555   C556    1.377   .     A
C555   C557    1.395   .     A
C556   N96     1.338   .     A
C557   C558    1.412   .     A
C557   H183    1.084   .     S
C558   C559    1.432   .     A
C558   C561    1.403   .     A
C559   C560    1.411   .     A
C559   C564    1.403   .     A
C560   H184    1.084   .     S
C561   C562    1.397   .     A
C561   H185    1.084   .     S
C562   C563    1.412   .     A
C562   O89     1.396   .     S
C563   C564    1.397   .     A
C563   O90     1.395   .     S
C564   H186    1.084   .     S
C565   C566    1.397   .     A
C565   H187    1.084   .     S
C566   C567    1.412   .     A
C566   O91     1.396   .     S
C567   C568    1.397   .     A
C567   O92     1.395   .     S
C568   H188    1.084   .     S
C569   C570    1.396   .     A
C569   H189    1.083   .     S
C570   C571    1.374   .     A
C570   O93     1.381   .     S
C571   C572    1.396   .     A
C571   O94     1.381   .     S
C572   H190    1.083   .     S
C573   C574    1.396   .     A
C573   H191    1.083   .     S
C574   C575    1.374   .     A
C574   O95     1.381   .     S
C575   C576    1.396   .     A
C575   O96     1.381   .     S
C576   H192    1.083   .     S
O89    Zn21    1.801   .     S
O90    Zn21    1.800   .     S
O91    Zn22    1.801   .     S
O92    Zn22    1.800   .     S
O93    Cu10    1.812   .     S
O94    Cu10    1.812   .     S
O95    Cu12    1.812   .     S
O96    Cu12    1.812   .     S
C577   C578    1.412   .     A
C577   C582    1.394   .     A
C577   H193    1.084   .     S
C578   C579    1.432   1_655 A
C578   C613    1.403   .     A
C579   C578    1.432   1_455 A
C579   C580    1.412   .     A
C579   C616    1.403   .     A
C580   C581    1.394   .     A
C580   H194    1.084   .     S
C581   C582    1.358   1_455 A
C581   C584    1.377   .     A
C582   C581    1.358   1_655 A
C582   C583    1.377   .     A
C583   N97     1.359   1_655 A
C583   N104    1.338   .     A
N97    C583    1.359   1_455 A
N97    C584    1.359   .     A
N97    Ni13    1.895   1_556 S
C584   N98     1.338   .     A
N98    C585    1.338   .     A
C585   N99     1.359   1_556 A
C585   C588    1.377   .     A
N99    C585    1.359   1_554 A
N99    C586    1.359   .     A
N99    Ni13    1.895   .     S
C586   C587    1.377   .     A
C586   N101    1.338   .     A
C587   C588    1.358   1_554 A
C587   C596    1.394   .     A
C588   C587    1.358   1_556 A
C588   C593    1.394   .     A
N100   C589    1.359   .     A
N100   C592    1.359   1_455 A
N100   Ni13    1.895   .     S
C589   N101    1.338   .     A
C589   C590    1.377   .     A
C590   C591    1.358   1_455 A
C590   C600    1.394   .     A
C591   C590    1.358   1_655 A
C591   C592    1.377   .     A
C591   C597    1.394   .     A
C592   N100    1.359   1_655 A
C592   N103    1.338   .     A
C593   C594    1.411   .     A
C593   H195    1.084   .     S
C594   C595    1.432   1_556 A
C594   C617    1.403   .     A
C595   C594    1.432   1_554 A
C595   C596    1.412   .     A
C595   C620    1.403   .     A
C596   H196    1.084   .     S
C597   C598    1.411   .     A
C597   H197    1.084   .     S
C598   C599    1.432   1_655 A
C598   C621    1.403   .     A
C599   C598    1.432   1_455 A
C599   C600    1.412   .     A
C599   C624    1.403   .     A
C600   H198    1.084   .     S
N102   C601    1.359   .     A
N102   C604    1.359   1_554 A
N102   Ni13    1.895   1_655 S
C601   N103    1.338   .     A
C601   C602    1.377   .     A
C602   C603    1.358   1_554 A
C602   C608    1.394   .     A
C603   C602    1.358   1_556 A
C603   C604    1.377   .     A
C603   C605    1.394   .     A
C604   N102    1.359   1_556 A
C604   N104    1.338   .     A
C605   C606    1.412   .     A
C605   H199    1.084   .     S
C606   C607    1.432   1_556 A
C606   C609    1.403   .     A
C607   C606    1.432   1_554 A
C607   C608    1.412   .     A
C607   C612    1.403   .     A
C608   H200    1.084   .     S
C609   C610    1.397   .     A
C609   H201    1.084   .     S
C610   C611    1.412   1_556 A
C610   O97     1.395   .     S
C611   C610    1.412   1_554 A
C611   C612    1.397   .     A
C611   O98     1.395   .     S
C612   H202    1.084   .     S
C613   C614    1.397   .     A
C613   H203    1.084   .     S
C614   C615    1.412   1_655 A
C614   O99     1.395   .     S
C615   C614    1.412   1_455 A
C615   C616    1.397   .     A
C615   O100    1.395   .     S
C616   H204    1.084   .     S
C617   C618    1.397   .     A
C617   H205    1.084   .     S
C618   C619    1.412   1_556 A
C618   O101    1.395   .     S
C619   C618    1.412   1_554 A
C619   C620    1.397   .     A
C619   O102    1.396   .     S
C620   H206    1.084   .     S
C621   C622    1.397   .     A
C621   H207    1.084   .     S
C622   C623    1.412   1_655 A
C622   O103    1.395   .     S
C623   C622    1.412   1_455 A
C623   C624    1.397   .     A
C623   O104    1.396   .     S
C624   H208    1.084   .     S
O97    Zn24    1.800   1_556 S
O98    Zn24    1.800   .     S
O99    Zn7     1.800   1_655 S
O100   Zn7     1.800   .     S
O101   Zn19    1.800   1_556 S
O102   Zn19    1.801   .     S
O103   Zn1     1.800   1_655 S
O104   Zn1     1.801   .     S
Ni13   N102    1.895   1_455 S
Ni13   N97     1.895   1_554 S
C625   C626    1.412   .     A
C625   C630    1.394   .     A
C625   H209    1.084   .     S
C626   C627    1.432   1_545 A
C626   C661    1.403   .     A
C627   C626    1.432   1_565 A
C627   C628    1.411   .     A
C627   C664    1.403   .     A
C628   C629    1.394   .     A
C628   H210    1.084   .     S
C629   C630    1.358   1_565 A
C629   C632    1.377   .     A
C630   C629    1.358   1_545 A
C630   C631    1.377   .     A
C631   N105    1.359   .     A
C631   N112    1.338   .     A
N105   C632    1.359   1_545 A
N105   Ni14    1.895   .     S
C632   N105    1.359   1_565 A
C632   N106    1.338   .     A
N106   C633    1.338   .     A
C633   N107    1.359   .     A
C633   C636    1.377   .     A
N107   C634    1.359   1_554 A
N107   Ni14    1.895   1_565 S
C634   N107    1.359   1_556 A
C634   C635    1.377   .     A
C634   N109    1.338   .     A
C635   C636    1.358   1_556 A
C635   C644    1.394   .     A
C636   C635    1.358   1_554 A
C636   C641    1.394   .     A
N108   C637    1.359   1_545 A
N108   C640    1.359   .     A
N108   Ni14    1.895   1_556 S
C637   N108    1.359   1_565 A
C637   N109    1.338   .     A
C637   C638    1.377   .     A
C638   C639    1.358   1_565 A
C638   C648    1.394   .     A
C639   C638    1.358   1_545 A
C639   C640    1.377   .     A
C639   C645    1.394   .     A
C640   N111    1.338   .     A
C641   C642    1.411   .     A
C641   H211    1.084   .     S
C642   C643    1.432   1_554 A
C642   C665    1.403   .     A
C643   C642    1.432   1_556 A
C643   C644    1.412   .     A
C643   C668    1.403   .     A
C644   H212    1.084   .     S
C645   C646    1.411   .     A
C645   H213    1.084   .     S
C646   C647    1.432   1_545 A
C646   C669    1.403   .     A
C647   C646    1.432   1_565 A
C647   C648    1.412   .     A
C647   C672    1.403   .     A
C648   H214    1.084   .     S
N110   C649    1.359   1_554 A
N110   C652    1.359   .     A
N110   Ni14    1.895   .     S
C649   N110    1.359   1_556 A
C649   N111    1.338   .     A
C649   C650    1.377   .     A
C650   C651    1.358   1_556 A
C650   C656    1.394   .     A
C651   C650    1.358   1_554 A
C651   C652    1.377   .     A
C651   C653    1.394   .     A
C652   N112    1.338   .     A
C653   C654    1.412   .     A
C653   H215    1.084   .     S
C654   C655    1.432   1_554 A
C654   C657    1.403   .     A
C655   C654    1.432   1_556 A
C655   C656    1.412   .     A
C655   C660    1.403   .     A
C656   H216    1.084   .     S
C657   C658    1.397   .     A
C657   H217    1.084   .     S
C658   C659    1.412   1_554 A
C658   O105    1.395   .     S
C659   C658    1.412   1_556 A
C659   C660    1.397   .     A
C659   O106    1.395   .     S
C660   H218    1.084   .     S
C661   C662    1.397   .     A
C661   H219    1.084   .     S
C662   C663    1.412   1_545 A
C662   O107    1.395   .     S
C663   C662    1.412   1_565 A
C663   C664    1.397   .     A
C663   O108    1.395   .     S
C664   H220    1.084   .     S
C665   C666    1.397   .     A
C665   H221    1.084   .     S
C666   C667    1.412   1_554 A
C666   O109    1.395   .     S
C667   C666    1.412   1_556 A
C667   C668    1.397   .     A
C667   O110    1.396   .     S
C668   H222    1.084   .     S
C669   C670    1.397   .     A
C669   H223    1.084   .     S
C670   C671    1.412   1_545 A
C670   O111    1.395   .     S
C671   C670    1.412   1_565 A
C671   C672    1.397   .     A
C671   O112    1.396   .     S
C672   H224    1.084   .     S
O105   Zn20    1.800   .     S
O106   Zn20    1.800   1_556 S
O107   Zn2     1.800   .     S
O108   Zn2     1.800   1_565 S
O109   Zn22    1.800   .     S
O110   Zn22    1.801   1_556 S
O111   Zn8     1.800   .     S
O112   Zn8     1.801   1_565 S
Ni14   N107    1.895   1_545 S
Ni14   N108    1.895   1_554 S
C673   C674    1.412   .     A
C673   C678    1.394   .     A
C673   H225    1.084   .     S
C674   C675    1.432   1_655 A
C674   C709    1.403   .     A
C675   C674    1.432   1_455 A
C675   C676    1.411   .     A
C675   C712    1.403   .     A
C676   C677    1.394   .     A
C676   H226    1.084   .     S
C677   C678    1.358   1_455 A
C677   C680    1.377   .     A
C678   C677    1.358   1_655 A
C678   C679    1.377   .     A
C679   N113    1.359   1_655 A
C679   N120    1.338   .     A
N113   C679    1.359   1_455 A
N113   C680    1.359   .     A
N113   Ni15    1.895   1_556 S
C680   N114    1.338   .     A
N114   C681    1.338   .     A
C681   N115    1.359   1_556 A
C681   C684    1.377   .     A
N115   C681    1.359   1_554 A
N115   C682    1.359   .     A
N115   Ni15    1.895   .     S
C682   C683    1.377   .     A
C682   N117    1.338   .     A
C683   C684    1.358   1_554 A
C683   C692    1.394   .     A
C684   C683    1.358   1_556 A
C684   C689    1.394   .     A
N116   C685    1.359   .     A
N116   C688    1.359   1_455 A
N116   Ni15    1.895   .     S
C685   N117    1.338   .     A
C685   C686    1.377   .     A
C686   C687    1.358   1_455 A
C686   C696    1.394   .     A
C687   C686    1.358   1_655 A
C687   C688    1.377   .     A
C687   C693    1.394   .     A
C688   N116    1.359   1_655 A
C688   N119    1.338   .     A
C689   C690    1.411   .     A
C689   H227    1.084   .     S
C690   C691    1.432   1_556 A
C690   C713    1.403   .     A
C691   C690    1.432   1_554 A
C691   C692    1.412   .     A
C691   C716    1.403   .     A
C692   H228    1.084   .     S
C693   C694    1.412   .     A
C693   H229    1.084   .     S
C694   C695    1.432   1_655 A
C694   C717    1.403   .     A
C695   C694    1.432   1_455 A
C695   C696    1.412   .     A
C695   C720    1.403   .     A
C696   H230    1.084   .     S
N118   C697    1.359   .     A
N118   C700    1.359   1_554 A
N118   Ni15    1.895   1_655 S
C697   N119    1.338   .     A
C697   C698    1.377   .     A
C698   C699    1.358   1_554 A
C698   C704    1.394   .     A
C699   C698    1.358   1_556 A
C699   C700    1.377   .     A
C699   C701    1.394   .     A
C700   N118    1.359   1_556 A
C700   N120    1.338   .     A
C701   C702    1.412   .     A
C701   H231    1.084   .     S
C702   C703    1.432   1_556 A
C702   C705    1.403   .     A
C703   C702    1.432   1_554 A
C703   C704    1.411   .     A
C703   C708    1.403   .     A
C704   H232    1.084   .     S
C705   C706    1.397   .     A
C705   H233    1.084   .     S
C706   C707    1.412   1_556 A
C706   O113    1.396   .     S
C707   C706    1.412   1_554 A
C707   C708    1.397   .     A
C707   O114    1.395   .     S
C708   H234    1.084   .     S
C709   C710    1.397   .     A
C709   H235    1.084   .     S
C710   C711    1.412   1_655 A
C710   O115    1.396   .     S
C711   C710    1.412   1_455 A
C711   C712    1.397   .     A
C711   O116    1.395   .     S
C712   H236    1.084   .     S
C713   C714    1.397   .     A
C713   H237    1.084   .     S
C714   C715    1.412   1_556 A
C714   O117    1.395   .     S
C715   C714    1.412   1_554 A
C715   C716    1.397   .     A
C715   O118    1.395   .     S
C716   H238    1.084   .     S
C717   C718    1.397   .     A
C717   H239    1.084   .     S
C718   C719    1.412   1_655 A
C718   O119    1.395   .     S
C719   C718    1.412   1_455 A
C719   C720    1.397   .     A
C719   O120    1.395   .     S
C720   H240    1.084   .     S
O113   Zn21    1.801   1_556 S
O114   Zn21    1.800   .     S
O115   Zn5     1.801   1_655 S
O116   Zn5     1.800   .     S
O117   Zn23    1.800   1_556 S
O118   Zn23    1.800   .     S
O119   Zn3     1.800   1_655 S
O120   Zn3     1.800   .     S
Ni15   N118    1.895   1_455 S
Ni15   N113    1.895   1_554 S
C721   C722    1.412   .     A
C721   C726    1.394   .     A
C721   H241    1.084   .     S
C722   C723    1.432   1_545 A
C722   C757    1.403   .     A
C723   C722    1.432   1_565 A
C723   C724    1.411   .     A
C723   C760    1.403   .     A
C724   C725    1.394   .     A
C724   H242    1.084   .     S
C725   C726    1.358   1_565 A
C725   C728    1.377   .     A
C726   C725    1.358   1_545 A
C726   C727    1.377   .     A
C727   N121    1.359   .     A
C727   N128    1.338   .     A
N121   C728    1.359   1_545 A
N121   Ni16    1.895   .     S
C728   N121    1.359   1_565 A
C728   N122    1.338   .     A
N122   C729    1.338   .     A
C729   N123    1.359   .     A
C729   C732    1.377   .     A
N123   C730    1.359   1_554 A
N123   Ni16    1.895   1_565 S
C730   N123    1.359   1_556 A
C730   C731    1.377   .     A
C730   N125    1.338   .     A
C731   C732    1.358   1_556 A
C731   C740    1.394   .     A
C732   C731    1.358   1_554 A
C732   C737    1.394   .     A
N124   C733    1.359   1_545 A
N124   C736    1.359   .     A
N124   Ni16    1.895   1_556 S
C733   N124    1.359   1_565 A
C733   N125    1.338   .     A
C733   C734    1.377   .     A
C734   C735    1.358   1_565 A
C734   C744    1.394   .     A
C735   C734    1.358   1_545 A
C735   C736    1.377   .     A
C735   C741    1.394   .     A
C736   N127    1.338   .     A
C737   C738    1.411   .     A
C737   H243    1.084   .     S
C738   C739    1.432   1_554 A
C738   C761    1.403   .     A
C739   C738    1.432   1_556 A
C739   C740    1.412   .     A
C739   C764    1.403   .     A
C740   H244    1.084   .     S
C741   C742    1.412   .     A
C741   H245    1.084   .     S
C742   C743    1.432   1_545 A
C742   C765    1.403   .     A
C743   C742    1.432   1_565 A
C743   C744    1.412   .     A
C743   C768    1.403   .     A
C744   H246    1.084   .     S
N126   C745    1.359   1_554 A
N126   C748    1.359   .     A
N126   Ni16    1.895   .     S
C745   N126    1.359   1_556 A
C745   N127    1.338   .     A
C745   C746    1.377   .     A
C746   C747    1.358   1_556 A
C746   C752    1.394   .     A
C747   C746    1.358   1_554 A
C747   C748    1.377   .     A
C747   C749    1.394   .     A
C748   N128    1.338   .     A
C749   C750    1.412   .     A
C749   H247    1.084   .     S
C750   C751    1.432   1_554 A
C750   C753    1.403   .     A
C751   C750    1.432   1_556 A
C751   C752    1.411   .     A
C751   C756    1.403   .     A
C752   H248    1.084   .     S
C753   C754    1.397   .     A
C753   H249    1.084   .     S
C754   C755    1.412   1_554 A
C754   O121    1.396   .     S
C755   C754    1.412   1_556 A
C755   C756    1.397   .     A
C755   O122    1.395   .     S
C756   H250    1.084   .     S
C757   C758    1.397   .     A
C757   H251    1.084   .     S
C758   C759    1.412   1_545 A
C758   O123    1.396   .     S
C759   C758    1.412   1_565 A
C759   C760    1.397   .     A
C759   O124    1.395   .     S
C760   H252    1.084   .     S
C761   C762    1.397   .     A
C761   H253    1.084   .     S
C762   C763    1.412   1_554 A
C762   O125    1.395   .     S
C763   C762    1.412   1_556 A
C763   C764    1.397   .     A
C763   O126    1.395   .     S
C764   H254    1.084   .     S
C765   C766    1.397   .     A
C765   H255    1.084   .     S
C766   C767    1.412   1_545 A
C766   O127    1.395   .     S
C767   C766    1.412   1_565 A
C767   C768    1.397   .     A
C767   O128    1.395   .     S
C768   H256    1.084   .     S
O121   Zn17    1.801   .     S
O122   Zn17    1.800   1_556 S
O123   Zn4     1.801   .     S
O124   Zn4     1.800   1_565 S
O125   Zn18    1.800   .     S
O126   Zn18    1.800   1_556 S
O127   Zn6     1.800   .     S
O128   Zn6     1.800   1_565 S
Ni16   N123    1.895   1_545 S
Ni16   N124    1.895   1_554 S
C769   C770    1.411   .     A
C769   C774    1.394   .     A
C769   H257    1.084   .     S
C770   C771    1.432   1_655 A
C770   C805    1.403   .     A
C771   C770    1.432   1_455 A
C771   C772    1.412   .     A
C771   C808    1.403   .     A
C772   C773    1.394   .     A
C772   H258    1.084   .     S
C773   C774    1.358   1_455 A
C773   C776    1.377   .     A
C774   C773    1.358   1_655 A
C774   C775    1.377   .     A
C775   N129    1.359   1_655 A
C775   N136    1.338   .     A
N129   C775    1.359   1_455 A
N129   C776    1.359   .     A
N129   Ni17    1.895   1_565 S
C776   N130    1.338   .     A
N130   C777    1.338   .     A
C777   N131    1.359   1_565 A
C777   C780    1.377   .     A
N131   C777    1.359   1_545 A
N131   C778    1.359   .     A
N131   Ni17    1.895   .     S
C778   C779    1.377   .     A
C778   N133    1.338   .     A
C779   C780    1.358   1_545 A
C779   C788    1.394   .     A
C780   C779    1.358   1_565 A
C780   C785    1.394   .     A
N132   C781    1.359   .     A
N132   C784    1.359   1_455 A
N132   Ni17    1.895   .     S
C781   N133    1.338   .     A
C781   C782    1.377   .     A
C782   C783    1.358   1_455 A
C782   C792    1.394   .     A
C783   C782    1.358   1_655 A
C783   C784    1.377   .     A
C783   C789    1.394   .     A
C784   N132    1.359   1_655 A
C784   N135    1.338   .     A
C785   C786    1.411   .     A
C785   H259    1.084   .     S
C786   C787    1.432   1_565 A
C786   C809    1.403   .     A
C787   C786    1.432   1_545 A
C787   C788    1.412   .     A
C787   C812    1.403   .     A
C788   H260    1.084   .     S
C789   C790    1.411   .     A
C789   H261    1.084   .     S
C790   C791    1.432   1_655 A
C790   C813    1.403   .     A
C791   C790    1.432   1_455 A
C791   C792    1.412   .     A
C791   C816    1.403   .     A
C792   H262    1.084   .     S
N134   C793    1.359   .     A
N134   C796    1.359   1_545 A
N134   Ni17    1.895   1_655 S
C793   N135    1.338   .     A
C793   C794    1.377   .     A
C794   C795    1.358   1_545 A
C794   C800    1.394   .     A
C795   C794    1.358   1_565 A
C795   C796    1.377   .     A
C795   C797    1.394   .     A
C796   N134    1.359   1_565 A
C796   N136    1.338   .     A
C797   C798    1.412   .     A
C797   H263    1.084   .     S
C798   C799    1.432   1_565 A
C798   C801    1.403   .     A
C799   C798    1.432   1_545 A
C799   C800    1.412   .     A
C799   C804    1.403   .     A
C800   H264    1.084   .     S
C801   C802    1.397   .     A
C801   H265    1.084   .     S
C802   C803    1.412   1_565 A
C802   O129    1.395   .     S
C803   C802    1.412   1_545 A
C803   C804    1.397   .     A
C803   O130    1.395   .     S
C804   H266    1.084   .     S
C805   C806    1.397   .     A
C805   H267    1.084   .     S
C806   C807    1.412   1_655 A
C806   O131    1.395   .     S
C807   C806    1.412   1_455 A
C807   C808    1.397   .     A
C807   O132    1.395   .     S
C808   H268    1.084   .     S
C809   C810    1.397   .     A
C809   H269    1.084   .     S
C810   C811    1.412   1_565 A
C810   O133    1.395   .     S
C811   C810    1.412   1_545 A
C811   C812    1.397   .     A
C811   O134    1.396   .     S
C812   H270    1.084   .     S
C813   C814    1.397   .     A
C813   H271    1.084   .     S
C814   C815    1.412   1_655 A
C814   O135    1.395   .     S
C815   C814    1.412   1_455 A
C815   C816    1.397   .     A
C815   O136    1.396   .     S
C816   H272    1.084   .     S
O129   Zn11    1.800   1_565 S
O130   Zn11    1.800   .     S
O131   Zn12    1.800   1_655 S
O132   Zn12    1.800   .     S
O133   Zn9     1.800   1_565 S
O134   Zn9     1.801   .     S
O135   Zn10    1.800   1_655 S
O136   Zn10    1.801   .     S
Ni17   N134    1.895   1_455 S
Ni17   N129    1.895   1_545 S
C817   C818    1.412   .     A
C817   C822    1.394   .     A
C817   H273    1.084   .     S
C818   C819    1.432   1_655 A
C818   C853    1.403   .     A
C819   C818    1.432   1_455 A
C819   C820    1.411   .     A
C819   C856    1.403   .     A
C820   C821    1.394   .     A
C820   H274    1.084   .     S
C821   C822    1.358   1_455 A
C821   C824    1.377   .     A
C822   C821    1.358   1_655 A
C822   C823    1.377   .     A
C823   N137    1.359   1_655 A
C823   N144    1.338   .     A
N137   C823    1.359   1_455 A
N137   C824    1.359   .     A
N137   Ni18    1.895   1_565 S
C824   N138    1.338   .     A
N138   C825    1.338   .     A
C825   N139    1.359   1_565 A
C825   C828    1.377   .     A
N139   C825    1.359   1_545 A
N139   C826    1.359   .     A
N139   Ni18    1.895   .     S
C826   C827    1.377   .     A
C826   N141    1.338   .     A
C827   C828    1.358   1_545 A
C827   C836    1.394   .     A
C828   C827    1.358   1_565 A
C828   C833    1.394   .     A
N140   C829    1.359   .     A
N140   C832    1.359   1_455 A
N140   Ni18    1.895   .     S
C829   N141    1.338   .     A
C829   C830    1.377   .     A
C830   C831    1.358   1_455 A
C830   C840    1.394   .     A
C831   C830    1.358   1_655 A
C831   C832    1.377   .     A
C831   C837    1.394   .     A
C832   N140    1.359   1_655 A
C832   N143    1.338   .     A
C833   C834    1.412   .     A
C833   H275    1.084   .     S
C834   C835    1.432   1_565 A
C834   C857    1.403   .     A
C835   C834    1.432   1_545 A
C835   C836    1.412   .     A
C835   C860    1.403   .     A
C836   H276    1.084   .     S
C837   C838    1.412   .     A
C837   H277    1.084   .     S
C838   C839    1.432   1_655 A
C838   C861    1.403   .     A
C839   C838    1.432   1_455 A
C839   C840    1.412   .     A
C839   C864    1.403   .     A
C840   H278    1.084   .     S
N142   C841    1.359   .     A
N142   C844    1.359   1_545 A
N142   Ni18    1.895   1_655 S
C841   N143    1.338   .     A
C841   C842    1.377   .     A
C842   C843    1.358   1_545 A
C842   C848    1.394   .     A
C843   C842    1.358   1_565 A
C843   C844    1.377   .     A
C843   C845    1.394   .     A
C844   N142    1.359   1_565 A
C844   N144    1.338   .     A
C845   C846    1.412   .     A
C845   H279    1.084   .     S
C846   C847    1.432   1_565 A
C846   C849    1.403   .     A
C847   C846    1.432   1_545 A
C847   C848    1.411   .     A
C847   C852    1.403   .     A
C848   H280    1.084   .     S
C849   C850    1.397   .     A
C849   H281    1.084   .     S
C850   C851    1.412   1_565 A
C850   O137    1.396   .     S
C851   C850    1.412   1_545 A
C851   C852    1.397   .     A
C851   O138    1.395   .     S
C852   H282    1.084   .     S
C853   C854    1.397   .     A
C853   H283    1.084   .     S
C854   C855    1.412   1_655 A
C854   O139    1.396   .     S
C855   C854    1.412   1_455 A
C855   C856    1.397   .     A
C855   O140    1.395   .     S
C856   H284    1.084   .     S
C857   C858    1.397   .     A
C857   H285    1.084   .     S
C858   C859    1.412   1_565 A
C858   O141    1.395   .     S
C859   C858    1.412   1_545 A
C859   C860    1.397   .     A
C859   O142    1.395   .     S
C860   H286    1.084   .     S
C861   C862    1.397   .     A
C861   H287    1.084   .     S
C862   C863    1.412   1_655 A
C862   O143    1.395   .     S
C863   C862    1.412   1_455 A
C863   C864    1.397   .     A
C863   O144    1.395   .     S
C864   H288    1.084   .     S
O137   Zn15    1.801   1_565 S
O138   Zn15    1.800   .     S
O139   Zn16    1.801   1_655 S
O140   Zn16    1.800   .     S
O141   Zn13    1.800   1_565 S
O142   Zn13    1.800   .     S
O143   Zn14    1.800   1_655 S
O144   Zn14    1.800   .     S
Ni18   N142    1.895   1_455 S
Ni18   N137    1.895   1_545 S
Zn1    O103    1.800   1_455 S
Zn2    O108    1.800   1_545 S
Zn3    O119    1.800   1_455 S
Zn4    O124    1.800   1_545 S
Zn5    O115    1.801   1_455 S
Zn6    O128    1.800   1_545 S
Zn7    O99     1.800   1_455 S
Zn8    O112    1.801   1_545 S
Zn9    O133    1.800   1_545 S
Zn10   O135    1.800   1_455 S
Zn11   O129    1.800   1_545 S
Zn12   O131    1.800   1_455 S
Zn13   O141    1.800   1_545 S
Zn14   O143    1.800   1_455 S
Zn15   O137    1.801   1_545 S
Zn16   O139    1.801   1_455 S
Zn17   O122    1.800   1_554 S
Zn18   O126    1.800   1_554 S
Zn19   O101    1.800   1_554 S
Zn20   O106    1.800   1_554 S
Zn21   O113    1.801   1_554 S
Zn22   O110    1.801   1_554 S
Zn23   O117    1.800   1_554 S
Zn24   O97     1.800   1_554 S
