data_sse-PcM_O-Zntet
_audit_creation_date              2021-11-06
_audit_creation_method            'Materials Studio'
_symmetry_space_group_name_H-M    'P1'
_symmetry_Int_Tables_number       1
_symmetry_cell_setting            triclinic
loop_
_symmetry_equiv_pos_as_xyz
  x,y,z
_cell_length_a                    53.1528
_cell_length_b                    53.1529
_cell_length_c                    17.9084
_cell_angle_alpha                 90.0016
_cell_angle_beta                  89.9998
_cell_angle_gamma                 90.0013
loop_
_atom_site_label
_atom_site_type_symbol
_atom_site_fract_x
_atom_site_fract_y
_atom_site_fract_z
_atom_site_U_iso_or_equiv
_atom_site_adp_type
_atom_site_occupancy
C1     C     0.14174   0.06980   0.00003   0.00000  Uiso   1.00
C2     C     0.15543   0.04716   0.00002   0.00000  Uiso   1.00
C3     C     0.18155   0.04717   0.00002   0.00000  Uiso   1.00
C4     C     0.19524   0.06981   0.00001   0.00000  Uiso   1.00
C5     C     0.18131   0.09213   0.00002   0.00000  Uiso   1.00
C6     C     0.15566   0.09213   0.00003   0.00000  Uiso   1.00
C7     C     0.14836   0.11697   0.00004   0.00000  Uiso   1.00
N1     N     0.16847   0.13279   0.00004   0.00000  Uiso   1.00
C8     C     0.18859   0.11698   0.00002   0.00000  Uiso   1.00
N2     N     0.21268   0.12428   1.00002   0.00000  Uiso   1.00
C9     C     0.21995   0.14838   1.00003   0.00000  Uiso   1.00
N3     N     0.20412   0.16847   0.00004   0.00000  Uiso   1.00
C10    C     0.21994   0.18857   0.00006   0.00000  Uiso   1.00
C11    C     0.24479   0.18128   0.00007   0.00000  Uiso   1.00
C12    C     0.24480   0.15568   1.00004   0.00000  Uiso   1.00
N4     N     0.16846   0.20412   0.00004   0.00000  Uiso   1.00
C13    C     0.18855   0.21995   0.00005   0.00000  Uiso   1.00
N5     N     0.21265   0.21267   0.00007   0.00000  Uiso   1.00
C14    C     0.18125   0.24480   0.00004   0.00000  Uiso   1.00
C15    C     0.15566   0.24479   0.00002   0.00000  Uiso   1.00
C16    C     0.14836   0.21994   0.00001   0.00000  Uiso   1.00
C17    C     0.26704   0.14172   1.00003   0.00000  Uiso   1.00
C18    C     0.28989   0.15507   1.00005   0.00000  Uiso   1.00
C19    C     0.28988   0.18191   1.00008   0.00000  Uiso   1.00
C20    C     0.26703   0.19525   0.00009   0.00000  Uiso   1.00
C21    C     0.14169   0.26703   0.00001   0.00000  Uiso   1.00
C22    C     0.15502   0.28988   0.00001   0.00000  Uiso   1.00
C23    C     0.18186   0.28989   0.00004   0.00000  Uiso   1.00
C24    C     0.19521   0.26704   0.00006   0.00000  Uiso   1.00
N6     N     0.13280   0.16845   0.00004   0.00000  Uiso   1.00
C25    C     0.11698   0.18856   0.00003   0.00000  Uiso   1.00
N7     N     0.12426   0.21266   1.00001   0.00000  Uiso   1.00
C26    C     0.09213   0.18128   0.00004   0.00000  Uiso   1.00
C27    C     0.09213   0.15563   0.00006   0.00000  Uiso   1.00
C28    C     0.11698   0.14834   0.00006   0.00000  Uiso   1.00
C29    C     0.06981   0.14170   0.00006   0.00000  Uiso   1.00
C30    C     0.04717   0.15539   0.00004   0.00000  Uiso   1.00
C31    C     0.04717   0.18151   1.00003   0.00000  Uiso   1.00
C32    C     0.06981   0.19520   1.00003   0.00000  Uiso   1.00
N8     N     0.12427   0.12425   0.00006   0.00000  Uiso   1.00
H1     H     0.12137   0.06990   0.00003   0.00000  Uiso   1.00
O1     O     0.14406   0.02381  -0.00000   0.00000  Uiso   1.00
O2     O     0.19292   0.02382   0.00001   0.00000  Uiso   1.00
H2     H     0.21560   0.06992   0.00000   0.00000  Uiso   1.00
H3     H     0.26674   0.12136   1.00000   0.00000  Uiso   1.00
O3     O     0.31277   0.14223   1.00003   0.00000  Uiso   1.00
O4     O     0.31276   0.19476   1.00009   0.00000  Uiso   1.00
H4     H     0.26673   0.21561   0.00012   0.00000  Uiso   1.00
H5     H     0.12132   0.26672   1.00000   0.00000  Uiso   1.00
O5     O     0.14217   0.31276   0.00000   0.00000  Uiso   1.00
O6     O     0.19470   0.31277   0.00005   0.00000  Uiso   1.00
H6     H     0.21558   0.26675   0.00009   0.00000  Uiso   1.00
H7     H     0.06991   0.12134   0.00007   0.00000  Uiso   1.00
O7     O     0.02382   0.14402   1.00004   0.00000  Uiso   1.00
O8     O     0.02382   0.19288   1.00002   0.00000  Uiso   1.00
H8     H     0.06991   0.21556   1.00002   0.00000  Uiso   1.00
Ni1    Ni    0.16846   0.16846   0.00003   0.00000  Uiso   1.00
C33    C     0.85826   0.06981   1.00001   0.00000  Uiso   1.00
C34    C     0.84457   0.04717   1.00001   0.00000  Uiso   1.00
C35    C     0.81845   0.04717   1.00001   0.00000  Uiso   1.00
C36    C     0.80476   0.06982   0.00004   0.00000  Uiso   1.00
C37    C     0.81869   0.09214   1.00005   0.00000  Uiso   1.00
C38    C     0.84434   0.09213   1.00003   0.00000  Uiso   1.00
C39    C     0.85163   0.11698   1.00004   0.00000  Uiso   1.00
N9     N     0.83153   0.13280   1.00005   0.00000  Uiso   1.00
C40    C     0.81141   0.11699   1.00006   0.00000  Uiso   1.00
N10    N     0.78732   0.12428   0.00007   0.00000  Uiso   1.00
C41    C     0.78005   0.14838   0.00007   0.00000  Uiso   1.00
N11    N     0.79588   0.16847   1.00006   0.00000  Uiso   1.00
C42    C     0.78006   0.18858   1.00005   0.00000  Uiso   1.00
C43    C     0.75521   0.18128   0.00007   0.00000  Uiso   1.00
C44    C     0.75520   0.15569   0.00008   0.00000  Uiso   1.00
N12    N     0.83154   0.20412   1.00005   0.00000  Uiso   1.00
C45    C     0.81145   0.21995   1.00005   0.00000  Uiso   1.00
N13    N     0.78735   0.21267   1.00005   0.00000  Uiso   1.00
C46    C     0.81875   0.24480   1.00006   0.00000  Uiso   1.00
C47    C     0.84435   0.24480   0.00006   0.00000  Uiso   1.00
C48    C     0.85164   0.21995   0.00005   0.00000  Uiso   1.00
C49    C     0.73296   0.14173   0.00010   0.00000  Uiso   1.00
C50    C     0.71011   0.15508   0.00010   0.00000  Uiso   1.00
C51    C     0.71012   0.18191   0.00008   0.00000  Uiso   1.00
C52    C     0.73297   0.19525   0.00007   0.00000  Uiso   1.00
C53    C     0.85832   0.26703   0.00007   0.00000  Uiso   1.00
C54    C     0.84498   0.28989   1.00008   0.00000  Uiso   1.00
C55    C     0.81814   0.28989   1.00007   0.00000  Uiso   1.00
C56    C     0.80479   0.26705   1.00006   0.00000  Uiso   1.00
N14    N     0.86720   0.16846   1.00004   0.00000  Uiso   1.00
C57    C     0.88302   0.18857   0.00004   0.00000  Uiso   1.00
N15    N     0.87574   0.21266   0.00005   0.00000  Uiso   1.00
C58    C     0.90787   0.18128   0.00002   0.00000  Uiso   1.00
C59    C     0.90787   0.15563   1.00001   0.00000  Uiso   1.00
C60    C     0.88302   0.14835   1.00002   0.00000  Uiso   1.00
C61    C     0.93019   0.14170   1.00001   0.00000  Uiso   1.00
C62    C     0.95283   0.15539   0.00001   0.00000  Uiso   1.00
C63    C     0.95283   0.18151   0.00001   0.00000  Uiso   1.00
C64    C     0.93019   0.19520   0.00001   0.00000  Uiso   1.00
N16    N     0.87573   0.12425   1.00002   0.00000  Uiso   1.00
H9     H     0.87862   0.06991   1.00000   0.00000  Uiso   1.00
O9     O     0.85594   0.02382   1.00000   0.00000  Uiso   1.00
O10    O     0.80707   0.02382   1.00001   0.00000  Uiso   1.00
H10    H     0.78440   0.06992   0.00004   0.00000  Uiso   1.00
H11    H     0.73325   0.12136   0.00011   0.00000  Uiso   1.00
O11    O     0.68723   0.14223   0.00010   0.00000  Uiso   1.00
O12    O     0.68724   0.19477   0.00007   0.00000  Uiso   1.00
H12    H     0.73328   0.21562   0.00005   0.00000  Uiso   1.00
H13    H     0.87868   0.26673   0.00007   0.00000  Uiso   1.00
O13    O     0.85784   0.31276   1.00009   0.00000  Uiso   1.00
O14    O     0.80530   0.31278   1.00007   0.00000  Uiso   1.00
H14    H     0.78443   0.26675   1.00005   0.00000  Uiso   1.00
H15    H     0.93009   0.12134   1.00000   0.00000  Uiso   1.00
O15    O     0.97618   0.14402   0.00001   0.00000  Uiso   1.00
O16    O     0.97618   0.19288   0.00000   0.00000  Uiso   1.00
H16    H     0.93010   0.21557   0.00000   0.00000  Uiso   1.00
Ni2    Ni    0.83154   0.16846   1.00004   0.00000  Uiso   1.00
C65    C     0.85826   0.93020   0.00002   0.00000  Uiso   1.00
C66    C     0.84457   0.95283   0.00002   0.00000  Uiso   1.00
C67    C     0.81845   0.95283   0.00001   0.00000  Uiso   1.00
C68    C     0.80476   0.93019   0.00002   0.00000  Uiso   1.00
C69    C     0.81869   0.90787   0.00003   0.00000  Uiso   1.00
C70    C     0.84434   0.90787   0.00004   0.00000  Uiso   1.00
C71    C     0.85163   0.88303   0.00005   0.00000  Uiso   1.00
N17    N     0.83153   0.86721   0.00005   0.00000  Uiso   1.00
C72    C     0.81141   0.88302   0.00004   0.00000  Uiso   1.00
N18    N     0.78732   0.87572   1.00004   0.00000  Uiso   1.00
C73    C     0.78005   0.85162   1.00005   0.00000  Uiso   1.00
N19    N     0.79587   0.83153   0.00005   0.00000  Uiso   1.00
C74    C     0.78006   0.81143   0.00007   0.00000  Uiso   1.00
C75    C     0.75520   0.81872   0.00008   0.00000  Uiso   1.00
C76    C     0.75520   0.84432   1.00006   0.00000  Uiso   1.00
N20    N     0.83154   0.79588   0.00004   0.00000  Uiso   1.00
C77    C     0.81144   0.78005   0.00005   0.00000  Uiso   1.00
N21    N     0.78734   0.78733   0.00007   0.00000  Uiso   1.00
C78    C     0.81874   0.75520   0.00005   0.00000  Uiso   1.00
C79    C     0.84434   0.75521   0.00002   0.00000  Uiso   1.00
C80    C     0.85164   0.78006   0.00002   0.00000  Uiso   1.00
C81    C     0.73296   0.85828   1.00006   0.00000  Uiso   1.00
C82    C     0.71011   0.84493   1.00008   0.00000  Uiso   1.00
C83    C     0.71011   0.81809   1.00010   0.00000  Uiso   1.00
C84    C     0.73297   0.80475   0.00010   0.00000  Uiso   1.00
C85    C     0.85831   0.73297   1.00001   0.00000  Uiso   1.00
C86    C     0.84497   0.71012   0.00002   0.00000  Uiso   1.00
C87    C     0.81813   0.71011   0.00005   0.00000  Uiso   1.00
C88    C     0.80479   0.73296   0.00006   0.00000  Uiso   1.00
N22    N     0.86720   0.83155   0.00004   0.00000  Uiso   1.00
C89    C     0.88302   0.81144   1.00003   0.00000  Uiso   1.00
N23    N     0.87573   0.78734   1.00002   0.00000  Uiso   1.00
C90    C     0.90786   0.81872   1.00003   0.00000  Uiso   1.00
C91    C     0.90786   0.84437   0.00004   0.00000  Uiso   1.00
C92    C     0.88302   0.85166   0.00005   0.00000  Uiso   1.00
C93    C     0.93019   0.85830   0.00003   0.00000  Uiso   1.00
C94    C     0.95283   0.84461   1.00001   0.00000  Uiso   1.00
C95    C     0.95283   0.81849   1.00001   0.00000  Uiso   1.00
C96    C     0.93019   0.80480   1.00001   0.00000  Uiso   1.00
N24    N     0.87573   0.87575   0.00005   0.00000  Uiso   1.00
H17    H     0.87863   0.93010   0.00002   0.00000  Uiso   1.00
O17    O     0.85594   0.97619   0.00001   0.00000  Uiso   1.00
O18    O     0.80707   0.97618   0.00002   0.00000  Uiso   1.00
H18    H     0.78440   0.93008   0.00000   0.00000  Uiso   1.00
H19    H     0.73325   0.87864   1.00005   0.00000  Uiso   1.00
O19    O     0.68723   0.85778   1.00007   0.00000  Uiso   1.00
O20    O     0.68723   0.80524   1.00011   0.00000  Uiso   1.00
H20    H     0.73327   0.78439   0.00011   0.00000  Uiso   1.00
H21    H     0.87868   0.73328   1.00000   0.00000  Uiso   1.00
O21    O     0.85783   0.68724   0.00001   0.00000  Uiso   1.00
O22    O     0.80529   0.68723   0.00006   0.00000  Uiso   1.00
H22    H     0.78442   0.73325   0.00009   0.00000  Uiso   1.00
H23    H     0.93009   0.87866   0.00003   0.00000  Uiso   1.00
O23    O     0.97618   0.85598   0.99999   0.00000  Uiso   1.00
O24    O     0.97618   0.80712   0.99999   0.00000  Uiso   1.00
H24    H     0.93009   0.78444   0.99998   0.00000  Uiso   1.00
Ni3    Ni    0.83154   0.83154   0.00003   0.00000  Uiso   1.00
C97    C     0.14174   0.93019   1.00002   0.00000  Uiso   1.00
C98    C     0.15543   0.95283   1.00002   0.00000  Uiso   1.00
C99    C     0.18155   0.95283   1.00004   0.00000  Uiso   1.00
C100   C     0.19524   0.93018   0.00006   0.00000  Uiso   1.00
C101   C     0.18131   0.90786   1.00006   0.00000  Uiso   1.00
C102   C     0.15566   0.90787   1.00004   0.00000  Uiso   1.00
C103   C     0.14836   0.88302   1.00004   0.00000  Uiso   1.00
N25    N     0.16847   0.86720   1.00006   0.00000  Uiso   1.00
C104   C     0.18858   0.88301   1.00008   0.00000  Uiso   1.00
N26    N     0.21268   0.87572   0.00010   0.00000  Uiso   1.00
C105   C     0.21995   0.85162   0.00010   0.00000  Uiso   1.00
N27    N     0.20412   0.83153   1.00008   0.00000  Uiso   1.00
C106   C     0.21994   0.81143   1.00007   0.00000  Uiso   1.00
C107   C     0.24479   0.81872   0.00009   0.00000  Uiso   1.00
C108   C     0.24480   0.84431   0.00011   0.00000  Uiso   1.00
N28    N     0.16845   0.79588   1.00006   0.00000  Uiso   1.00
C109   C     0.18855   0.78005   1.00007   0.00000  Uiso   1.00
N29    N     0.21265   0.78733   1.00007   0.00000  Uiso   1.00
C110   C     0.18125   0.75520   1.00008   0.00000  Uiso   1.00
C111   C     0.15565   0.75520   0.00008   0.00000  Uiso   1.00
C112   C     0.14836   0.78005   0.00007   0.00000  Uiso   1.00
C113   C     0.26704   0.85827   0.00013   0.00000  Uiso   1.00
C114   C     0.28989   0.84493   0.00013   0.00000  Uiso   1.00
C115   C     0.28988   0.81809   0.00010   0.00000  Uiso   1.00
C116   C     0.26703   0.80475   0.00009   0.00000  Uiso   1.00
C117   C     0.14168   0.73297   0.00010   0.00000  Uiso   1.00
C118   C     0.15502   0.71011   1.00011   0.00000  Uiso   1.00
C119   C     0.18186   0.71011   1.00010   0.00000  Uiso   1.00
C120   C     0.19521   0.73295   1.00009   0.00000  Uiso   1.00
N30    N     0.13279   0.83154   1.00004   0.00000  Uiso   1.00
C121   C     0.11697   0.81143   0.00004   0.00000  Uiso   1.00
N31    N     0.12426   0.78734   0.00005   0.00000  Uiso   1.00
C122   C     0.09213   0.81872   0.00001   0.00000  Uiso   1.00
C123   C     0.09213   0.84437   1.00000   0.00000  Uiso   1.00
C124   C     0.11698   0.85165   1.00002   0.00000  Uiso   1.00
C125   C     0.06981   0.85830   0.99997   0.00000  Uiso   1.00
C126   C     0.04717   0.84461  -0.00004   0.00000  Uiso   1.00
C127   C     0.04717   0.81849  -0.00004   0.00000  Uiso   1.00
C128   C     0.06980   0.80480  -0.00001   0.00000  Uiso   1.00
N32    N     0.12427   0.87574   1.00002   0.00000  Uiso   1.00
H25    H     0.12137   0.93010   1.00000   0.00000  Uiso   1.00
O25    O     0.14406   0.97618   1.00001   0.00000  Uiso   1.00
O26    O     0.19292   0.97618   1.00003   0.00000  Uiso   1.00
H26    H     0.21560   0.93008   0.00007   0.00000  Uiso   1.00
H27    H     0.26674   0.87864   0.00016   0.00000  Uiso   1.00
O27    O     0.31277   0.85777   0.00015   0.00000  Uiso   1.00
O28    O     0.31276   0.80524   0.00009   0.00000  Uiso   1.00
H28    H     0.26672   0.78438   0.00007   0.00000  Uiso   1.00
H29    H     0.12132   0.73327   0.00010   0.00000  Uiso   1.00
O29    O     0.14216   0.68724   1.00012   0.00000  Uiso   1.00
O30    O     0.19470   0.68722   1.00010   0.00000  Uiso   1.00
H30    H     0.21557   0.73325   1.00008   0.00000  Uiso   1.00
H31    H     0.06991   0.87866   0.99995   0.00000  Uiso   1.00
O31    O     0.02382   0.85598  -0.00005   0.00000  Uiso   1.00
O32    O     0.02381   0.80712  -0.00004   0.00000  Uiso   1.00
H32    H     0.06990   0.78443  -0.00001   0.00000  Uiso   1.00
Ni4    Ni    0.16846   0.83154   1.00005   0.00000  Uiso   1.00
C129   C     0.16840   0.59857   0.07952   0.00000  Uiso   1.00
C130   C     0.16841   0.62142   0.03993   0.00000  Uiso   1.00
C131   C     0.16840   0.62143   0.96027   0.00000  Uiso   1.00
C132   C     0.16839   0.59858   0.92066   0.00000  Uiso   1.00
C133   C     0.16838   0.57633   0.96210   0.00000  Uiso   1.00
C134   C     0.16838   0.57633   0.03807   0.00000  Uiso   1.00
C135   C     0.16837   0.55148   0.05973   0.00000  Uiso   1.00
N33    N     0.16836   0.53566   0.00008   0.00000  Uiso   1.00
C136   C     0.16836   0.55148   0.94043   0.00000  Uiso   1.00
N34    N     0.16833   0.54420   0.86891   0.00000  Uiso   1.00
C137   C     0.16832   0.52011   0.84728   0.00000  Uiso   1.00
N35    N     0.16834   0.50000   0.89422   0.00000  Uiso   1.00
C138   C     0.16833   0.47989   0.84727   0.00000  Uiso   1.00
C139   C     0.16829   0.48717   0.77353   0.00000  Uiso   1.00
C140   C     0.16829   0.51282   0.77354   0.00000  Uiso   1.00
N36    N     0.16836   0.46433   0.00007   0.00000  Uiso   1.00
C141   C     0.16837   0.44851   0.94042   0.00000  Uiso   1.00
N37    N     0.16835   0.45579   0.86890   0.00000  Uiso   1.00
C142   C     0.16839   0.42366   0.96207   0.00000  Uiso   1.00
C143   C     0.16838   0.42366   0.03804   0.00000  Uiso   1.00
C144   C     0.16836   0.44851   0.05971   0.00000  Uiso   1.00
C145   C     0.16825   0.52675   0.70727   0.00000  Uiso   1.00
C146   C     0.16821   0.51306   0.64008   0.00000  Uiso   1.00
C147   C     0.16821   0.48694   0.64008   0.00000  Uiso   1.00
C148   C     0.16825   0.47325   0.70727   0.00000  Uiso   1.00
C149   C     0.16839   0.40142   0.07948   0.00000  Uiso   1.00
C150   C     0.16841   0.37857   0.03987   0.00000  Uiso   1.00
C151   C     0.16841   0.37857   0.96021   0.00000  Uiso   1.00
C152   C     0.16840   0.40142   0.92062   0.00000  Uiso   1.00
N38    N     0.16835   0.50000   0.10592   0.00000  Uiso   1.00
C153   C     0.16832   0.47988   0.15287   0.00000  Uiso   1.00
N39    N     0.16834   0.45579   0.13123   0.00000  Uiso   1.00
C154   C     0.16829   0.48717   0.22661   0.00000  Uiso   1.00
C155   C     0.16829   0.51282   0.22661   0.00000  Uiso   1.00
C156   C     0.16833   0.52011   0.15287   0.00000  Uiso   1.00
C157   C     0.16826   0.52675   0.29287   0.00000  Uiso   1.00
C158   C     0.16822   0.51306   0.36007   0.00000  Uiso   1.00
C159   C     0.16821   0.48694   0.36007   0.00000  Uiso   1.00
C160   C     0.16825   0.47325   0.29287   0.00000  Uiso   1.00
N40    N     0.16835   0.54420   0.13125   0.00000  Uiso   1.00
H33    H     0.16840   0.59827   0.13997   0.00000  Uiso   1.00
O33    O     0.16842   0.64430   0.07806   0.00000  Uiso   1.00
O34    O     0.16841   0.64431   0.92214   0.00000  Uiso   1.00
H34    H     0.16838   0.59828   0.86022   0.00000  Uiso   1.00
H35    H     0.16824   0.54711   0.70758   0.00000  Uiso   1.00
O35    O     0.16817   0.52443   0.57077   0.00000  Uiso   1.00
O36    O     0.16817   0.47557   0.57077   0.00000  Uiso   1.00
H36    H     0.16825   0.45288   0.70757   0.00000  Uiso   1.00
H37    H     0.16839   0.40172   0.13992   0.00000  Uiso   1.00
O37    O     0.16842   0.35569   0.07799   0.00000  Uiso   1.00
O38    O     0.16843   0.35569   0.92207   0.00000  Uiso   1.00
H38    H     0.16841   0.40173   0.86017   0.00000  Uiso   1.00
H39    H     0.16826   0.54711   0.29257   0.00000  Uiso   1.00
O39    O     0.16818   0.52443   0.42938   0.00000  Uiso   1.00
O40    O     0.16818   0.47556   0.42938   0.00000  Uiso   1.00
H40    H     0.16824   0.45288   0.29257   0.00000  Uiso   1.00
Ni5    Ni    0.16835   0.50000   0.00007   0.00000  Uiso   1.00
C161   C     0.52675   0.16837   0.70727   0.00000  Uiso   1.00
C162   C     0.51306   0.16835   0.64008   0.00000  Uiso   1.00
C163   C     0.48694   0.16835   0.64008   0.00000  Uiso   1.00
C164   C     0.47325   0.16837   0.70727   0.00000  Uiso   1.00
C165   C     0.48718   0.16840   0.77353   0.00000  Uiso   1.00
C166   C     0.51283   0.16839   0.77353   0.00000  Uiso   1.00
C167   C     0.52011   0.16842   0.84727   0.00000  Uiso   1.00
N41    N     0.50000   0.16843   0.89422   0.00000  Uiso   1.00
C168   C     0.47989   0.16842   0.84727   0.00000  Uiso   1.00
N42    N     0.45579   0.16844   0.86890   0.00000  Uiso   1.00
C169   C     0.44851   0.16845   0.94042   0.00000  Uiso   1.00
N43    N     0.46434   0.16844   0.00007   0.00000  Uiso   1.00
C170   C     0.44851   0.16844   0.05972   0.00000  Uiso   1.00
C171   C     0.42366   0.16846   0.03805   0.00000  Uiso   1.00
C172   C     0.42366   0.16847   0.96208   0.00000  Uiso   1.00
N44    N     0.50000   0.16844   0.10592   0.00000  Uiso   1.00
C173   C     0.47989   0.16842   0.15287   0.00000  Uiso   1.00
N45    N     0.45579   0.16843   0.13124   0.00000  Uiso   1.00
C174   C     0.48717   0.16840   0.22661   0.00000  Uiso   1.00
C175   C     0.51282   0.16840   0.22661   0.00000  Uiso   1.00
C176   C     0.52011   0.16843   0.15287   0.00000  Uiso   1.00
C177   C     0.40142   0.16848   0.92063   0.00000  Uiso   1.00
C178   C     0.37857   0.16849   0.96023   0.00000  Uiso   1.00
C179   C     0.37857   0.16848   0.03989   0.00000  Uiso   1.00
C180   C     0.40142   0.16847   0.07949   0.00000  Uiso   1.00
C181   C     0.52675   0.16838   0.29287   0.00000  Uiso   1.00
C182   C     0.51306   0.16835   0.36007   0.00000  Uiso   1.00
C183   C     0.48694   0.16835   0.36007   0.00000  Uiso   1.00
C184   C     0.47325   0.16837   0.29287   0.00000  Uiso   1.00
N46    N     0.53566   0.16845   0.00007   0.00000  Uiso   1.00
C185   C     0.55149   0.16846   0.05972   0.00000  Uiso   1.00
N47    N     0.54420   0.16845   0.13124   0.00000  Uiso   1.00
C186   C     0.57634   0.16848   0.03806   0.00000  Uiso   1.00
C187   C     0.57634   0.16847   0.96209   0.00000  Uiso   1.00
C188   C     0.55149   0.16845   0.94043   0.00000  Uiso   1.00
C189   C     0.59858   0.16847   0.92065   0.00000  Uiso   1.00
C190   C     0.62143   0.16849   0.96025   0.00000  Uiso   1.00
C191   C     0.62143   0.16850   0.03991   0.00000  Uiso   1.00
C192   C     0.59858   0.16849   0.07951   0.00000  Uiso   1.00
N48    N     0.54421   0.16843   0.86890   0.00000  Uiso   1.00
H41    H     0.54712   0.16837   0.70757   0.00000  Uiso   1.00
O41    O     0.52443   0.16833   0.57077   0.00000  Uiso   1.00
O42    O     0.47557   0.16833   0.57077   0.00000  Uiso   1.00
H42    H     0.45289   0.16837   0.70757   0.00000  Uiso   1.00
H43    H     0.40173   0.16848   0.86019   0.00000  Uiso   1.00
O43    O     0.35569   0.16850   0.92210   0.00000  Uiso   1.00
O44    O     0.35569   0.16848   0.07802   0.00000  Uiso   1.00
H44    H     0.40172   0.16846   0.13994   0.00000  Uiso   1.00
H45    H     0.54711   0.16838   0.29257   0.00000  Uiso   1.00
O45    O     0.52443   0.16833   0.42937   0.00000  Uiso   1.00
O46    O     0.47557   0.16833   0.42938   0.00000  Uiso   1.00
H46    H     0.45288   0.16836   0.29257   0.00000  Uiso   1.00
H47    H     0.59828   0.16846   0.86020   0.00000  Uiso   1.00
O47    O     0.64431   0.16849   0.92212   0.00000  Uiso   1.00
O48    O     0.64431   0.16851   0.07804   0.00000  Uiso   1.00
H48    H     0.59827   0.16849   0.13995   0.00000  Uiso   1.00
Ni6    Ni    0.50000   0.16844   0.00007   0.00000  Uiso   1.00
C193   C     0.83160   0.40143   0.07951   0.00000  Uiso   1.00
C194   C     0.83159   0.37858   0.03991   0.00000  Uiso   1.00
C195   C     0.83160   0.37857   0.96025   0.00000  Uiso   1.00
C196   C     0.83161   0.40142   0.92065   0.00000  Uiso   1.00
C197   C     0.83162   0.42367   0.96209   0.00000  Uiso   1.00
C198   C     0.83162   0.42367   0.03806   0.00000  Uiso   1.00
C199   C     0.83163   0.44852   0.05972   0.00000  Uiso   1.00
N49    N     0.83164   0.46434   0.00007   0.00000  Uiso   1.00
C200   C     0.83164   0.44851   0.94043   0.00000  Uiso   1.00
N50    N     0.83166   0.45579   0.86890   0.00000  Uiso   1.00
C201   C     0.83168   0.47989   0.84727   0.00000  Uiso   1.00
N51    N     0.83166   0.50000   0.89422   0.00000  Uiso   1.00
C202   C     0.83167   0.52011   0.84727   0.00000  Uiso   1.00
C203   C     0.83171   0.51283   0.77353   0.00000  Uiso   1.00
C204   C     0.83171   0.48717   0.77353   0.00000  Uiso   1.00
N52    N     0.83165   0.53567   0.00007   0.00000  Uiso   1.00
C205   C     0.83163   0.55149   0.94042   0.00000  Uiso   1.00
N53    N     0.83165   0.54421   0.86890   0.00000  Uiso   1.00
C206   C     0.83162   0.57634   0.96208   0.00000  Uiso   1.00
C207   C     0.83162   0.57634   0.03805   0.00000  Uiso   1.00
C208   C     0.83164   0.55149   0.05971   0.00000  Uiso   1.00
C209   C     0.83175   0.47325   0.70727   0.00000  Uiso   1.00
C210   C     0.83178   0.48694   0.64008   0.00000  Uiso   1.00
C211   C     0.83178   0.51306   0.64008   0.00000  Uiso   1.00
C212   C     0.83174   0.52675   0.70727   0.00000  Uiso   1.00
C213   C     0.83161   0.59858   0.07949   0.00000  Uiso   1.00
C214   C     0.83159   0.62143   0.03988   0.00000  Uiso   1.00
C215   C     0.83159   0.62143   0.96022   0.00000  Uiso   1.00
C216   C     0.83160   0.59858   0.92063   0.00000  Uiso   1.00
N54    N     0.83166   0.50000   0.10592   0.00000  Uiso   1.00
C217   C     0.83167   0.52012   0.15287   0.00000  Uiso   1.00
N55    N     0.83166   0.54421   0.13124   0.00000  Uiso   1.00
C218   C     0.83171   0.51283   0.22661   0.00000  Uiso   1.00
C219   C     0.83170   0.48718   0.22661   0.00000  Uiso   1.00
C220   C     0.83167   0.47989   0.15287   0.00000  Uiso   1.00
C221   C     0.83174   0.47326   0.29287   0.00000  Uiso   1.00
C222   C     0.83177   0.48695   0.36007   0.00000  Uiso   1.00
C223   C     0.83177   0.51306   0.36007   0.00000  Uiso   1.00
C224   C     0.83174   0.52676   0.29287   0.00000  Uiso   1.00
N56    N     0.83165   0.45580   0.13124   0.00000  Uiso   1.00
H49    H     0.83160   0.40173   0.13995   0.00000  Uiso   1.00
O49    O     0.83158   0.35570   0.07804   0.00000  Uiso   1.00
O50    O     0.83159   0.35569   0.92212   0.00000  Uiso   1.00
H50    H     0.83162   0.40172   0.86020   0.00000  Uiso   1.00
H51    H     0.83175   0.45289   0.70757   0.00000  Uiso   1.00
O51    O     0.83181   0.47557   0.57076   0.00000  Uiso   1.00
O52    O     0.83181   0.52443   0.57077   0.00000  Uiso   1.00
H52    H     0.83174   0.54711   0.70758   0.00000  Uiso   1.00
H53    H     0.83161   0.59828   0.13993   0.00000  Uiso   1.00
O53    O     0.83158   0.64431   0.07800   0.00000  Uiso   1.00
O54    O     0.83157   0.64431   0.92209   0.00000  Uiso   1.00
H54    H     0.83160   0.59827   0.86018   0.00000  Uiso   1.00
H55    H     0.83174   0.45289   0.29257   0.00000  Uiso   1.00
O55    O     0.83181   0.47557   0.42937   0.00000  Uiso   1.00
O56    O     0.83181   0.52444   0.42938   0.00000  Uiso   1.00
H56    H     0.83175   0.54712   0.29258   0.00000  Uiso   1.00
Ni7    Ni    0.83165   0.50000   0.00007   0.00000  Uiso   1.00
C225   C     0.52675   0.83163   0.29291   0.00000  Uiso   1.00
C226   C     0.51306   0.83164   0.36011   0.00000  Uiso   1.00
C227   C     0.48694   0.83164   0.36011   0.00000  Uiso   1.00
C228   C     0.47325   0.83162   0.29291   0.00000  Uiso   1.00
C229   C     0.48717   0.83160   0.22665   0.00000  Uiso   1.00
C230   C     0.51282   0.83161   0.22665   0.00000  Uiso   1.00
C231   C     0.52011   0.83159   0.15291   0.00000  Uiso   1.00
N57    N     0.50000   0.83157   0.10596   0.00000  Uiso   1.00
C232   C     0.47989   0.83158   0.15291   0.00000  Uiso   1.00
N58    N     0.45579   0.83156   0.13128   0.00000  Uiso   1.00
C233   C     0.44851   0.83155   0.05976   0.00000  Uiso   1.00
N59    N     0.46433   0.83156   0.00011   0.00000  Uiso   1.00
C234   C     0.44851   0.83155   0.94047   0.00000  Uiso   1.00
C235   C     0.42366   0.83154   0.96213   0.00000  Uiso   1.00
C236   C     0.42366   0.83153   0.03810   0.00000  Uiso   1.00
N60    N     0.50000   0.83157   0.89426   0.00000  Uiso   1.00
C237   C     0.47988   0.83158   0.84732   0.00000  Uiso   1.00
N61    N     0.45579   0.83157   0.86895   0.00000  Uiso   1.00
C238   C     0.48717   0.83160   0.77357   0.00000  Uiso   1.00
C239   C     0.51282   0.83160   0.77357   0.00000  Uiso   1.00
C240   C     0.52011   0.83158   0.84731   0.00000  Uiso   1.00
C241   C     0.40142   0.83152   0.07955   0.00000  Uiso   1.00
C242   C     0.37857   0.83151   0.03995   0.00000  Uiso   1.00
C243   C     0.37857   0.83152   0.96029   0.00000  Uiso   1.00
C244   C     0.40142   0.83153   0.92069   0.00000  Uiso   1.00
C245   C     0.52675   0.83162   0.70731   0.00000  Uiso   1.00
C246   C     0.51306   0.83164   0.64012   0.00000  Uiso   1.00
C247   C     0.48694   0.83164   0.64012   0.00000  Uiso   1.00
C248   C     0.47325   0.83162   0.70731   0.00000  Uiso   1.00
N62    N     0.53566   0.83156   0.00011   0.00000  Uiso   1.00
C249   C     0.55148   0.83155   0.94046   0.00000  Uiso   1.00
N63    N     0.54420   0.83156   0.86894   0.00000  Uiso   1.00
C250   C     0.57633   0.83154   0.96212   0.00000  Uiso   1.00
C251   C     0.57633   0.83155   0.03809   0.00000  Uiso   1.00
C252   C     0.55148   0.83156   0.05976   0.00000  Uiso   1.00
C253   C     0.59858   0.83154   0.07953   0.00000  Uiso   1.00
C254   C     0.62143   0.83152   0.03993   0.00000  Uiso   1.00
C255   C     0.62142   0.83152   0.96027   0.00000  Uiso   1.00
C256   C     0.59857   0.83152   0.92067   0.00000  Uiso   1.00
N64    N     0.54420   0.83158   0.13128   0.00000  Uiso   1.00
H57    H     0.54711   0.83164   0.29261   0.00000  Uiso   1.00
O57    O     0.52443   0.83166   0.42942   0.00000  Uiso   1.00
O58    O     0.47557   0.83165   0.42942   0.00000  Uiso   1.00
H58    H     0.45288   0.83161   0.29261   0.00000  Uiso   1.00
H59    H     0.40172   0.83151   0.13999   0.00000  Uiso   1.00
O59    O     0.35569   0.83150   0.07808   0.00000  Uiso   1.00
O60    O     0.35569   0.83151   0.92216   0.00000  Uiso   1.00
H60    H     0.40172   0.83154   0.86024   0.00000  Uiso   1.00
H61    H     0.54711   0.83162   0.70761   0.00000  Uiso   1.00
O61    O     0.52443   0.83166   0.57081   0.00000  Uiso   1.00
O62    O     0.47556   0.83166   0.57081   0.00000  Uiso   1.00
H62    H     0.45288   0.83163   0.70761   0.00000  Uiso   1.00
H63    H     0.59828   0.83155   0.13998   0.00000  Uiso   1.00
O63    O     0.64431   0.83152   0.07806   0.00000  Uiso   1.00
O64    O     0.64430   0.83150   0.92214   0.00000  Uiso   1.00
H64    H     0.59827   0.83152   0.86023   0.00000  Uiso   1.00
Ni8    Ni    0.50000   0.83156   0.00011   0.00000  Uiso   1.00
Cu1    Cu    0.16849   1.00000  -0.00000   0.00000  Uiso   1.00
Cu2    Cu    1.00000   0.16845   0.00000   0.00000  Uiso   1.00
Cu3    Cu    0.83150   0.00000  -0.00001   0.00000  Uiso   1.00
Cu4    Cu    1.00000   0.83155  -0.00004   0.00000  Uiso   1.00
Zn1    Zn    0.16843   0.33423   0.00003   0.00000  Uiso   1.00
Zn2    Zn    0.66577   0.16850   0.00008   0.00000  Uiso   1.00
Zn3    Zn    0.83157   0.66577   0.00004   0.00000  Uiso   1.00
Zn4    Zn    0.33423   0.83150   0.00012   0.00000  Uiso   1.00
Zn5    Zn    0.16842   0.66577   1.00011   0.00000  Uiso   1.00
Zn6    Zn    0.33423   0.16849   0.00006   0.00000  Uiso   1.00
Zn7    Zn    0.83158   0.33423   1.00008   0.00000  Uiso   1.00
Zn8    Zn    0.66577   0.83151   1.00010   0.00000  Uiso   1.00
Cu5    Cu    0.16817   0.50000   0.50007   0.00000  Uiso   1.00
Cu6    Cu    0.50000   0.16832   0.50007   0.00000  Uiso   1.00
Cu7    Cu    0.83181   0.50000   0.50007   0.00000  Uiso   1.00
Cu8    Cu    0.50000   0.83166   0.50011   0.00000  Uiso   1.00
loop_
_geom_bond_atom_site_label_1
_geom_bond_atom_site_label_2
_geom_bond_distance
_geom_bond_site_symmetry_2
_ccdc_geom_bond_type
C1     C2      1.406   .     A
C1     C6      1.399   .     A
C1     H1      1.082   .     S
C2     C3      1.388   .     A
C2     O1      1.381   .     S
C3     C4      1.406   .     A
C3     O2      1.381   .     S
C4     C5      1.399   .     A
C4     H2      1.082   .     S
C5     C6      1.363   .     A
C5     C8      1.376   .     A
C6     C7      1.376   .     A
C7     N1      1.360   .     A
C7     N8      1.338   .     A
N1     C8      1.360   .     A
N1     Ni1     1.896   .     S
C8     N2      1.338   1_554 A
N2     C8      1.338   1_556 A
N2     C9      1.338   .     A
C9     N3      1.360   1_556 A
C9     C12     1.377   .     A
N3     C9      1.360   1_554 A
N3     C10     1.360   .     A
N3     Ni1     1.896   .     S
C10    C11     1.377   .     A
C10    N5      1.338   .     A
C11    C12     1.360   1_554 A
C11    C20     1.396   .     A
C12    C11     1.360   1_556 A
C12    C17     1.396   .     A
N4     C13     1.360   .     A
N4     C16     1.360   .     A
N4     Ni1     1.896   .     S
C13    N5      1.338   .     A
C13    C14     1.377   .     A
C14    C15     1.360   .     A
C14    C24     1.396   .     A
C15    C16     1.377   .     A
C15    C21     1.396   .     A
C16    N7      1.338   1_554 A
C17    C18     1.406   .     A
C17    H3      1.083   .     S
C18    C19     1.427   .     A
C18    O3      1.395   .     S
C19    C20     1.406   1_556 A
C19    O4      1.395   .     S
C20    C19     1.406   1_554 A
C20    H4      1.083   .     S
C21    C22     1.406   .     A
C21    H5      1.083   1_554 S
C22    C23     1.427   .     A
C22    O5      1.395   .     S
C23    C24     1.406   .     A
C23    O6      1.395   .     S
C24    H6      1.083   .     S
N6     C25     1.360   .     A
N6     C28     1.360   .     A
N6     Ni1     1.896   .     S
C25    N7      1.338   1_554 A
C25    C26     1.376   .     A
N7     C16     1.338   1_556 A
N7     C25     1.338   1_556 A
C26    C27     1.363   .     A
C26    C32     1.399   1_554 A
C27    C28     1.376   .     A
C27    C29     1.399   .     A
C28    N8      1.338   .     A
C29    C30     1.406   .     A
C29    H7      1.082   .     S
C30    C31     1.388   1_554 A
C30    O7      1.381   1_554 S
C31    C30     1.388   1_556 A
C31    C32     1.406   .     A
C31    O8      1.381   .     S
C32    C26     1.399   1_556 A
C32    H8      1.082   .     S
O1     Cu1     1.814   1_545 S
O2     Cu1     1.814   1_545 S
O3     Zn6     1.803   1_556 S
O4     Zn6     1.803   1_556 S
H5     C21     1.083   1_556 S
O5     Zn1     1.803   .     S
O6     Zn1     1.803   .     S
O7     C30     1.381   1_556 S
O7     Cu2     1.814   1_456 S
O8     Cu2     1.814   1_456 S
C33    C34     1.406   .     A
C33    C38     1.398   .     A
C33    H9      1.082   .     S
C34    C35     1.388   .     A
C34    O9      1.381   .     S
C35    C36     1.406   1_556 A
C35    O10     1.381   .     S
C36    C35     1.406   1_554 A
C36    C37     1.399   1_554 A
C36    H10     1.082   .     S
C37    C36     1.399   1_556 A
C37    C38     1.363   .     A
C37    C40     1.376   .     A
C38    C39     1.376   .     A
C39    N9      1.360   .     A
C39    N16     1.338   .     A
N9     C40     1.360   .     A
N9     Ni2     1.896   .     S
C40    N10     1.338   1_556 A
N10    C40     1.338   1_554 A
N10    C41     1.338   .     A
C41    N11     1.360   1_554 A
C41    C44     1.377   .     A
N11    C41     1.360   1_556 A
N11    C42     1.360   .     A
N11    Ni2     1.896   .     S
C42    C43     1.377   1_556 A
C42    N13     1.338   .     A
C43    C42     1.377   1_554 A
C43    C44     1.360   .     A
C43    C52     1.396   .     A
C44    C49     1.396   .     A
N12    C45     1.360   .     A
N12    C48     1.360   1_556 A
N12    Ni2     1.896   .     S
C45    N13     1.338   .     A
C45    C46     1.377   .     A
C46    C47     1.360   1_556 A
C46    C56     1.396   .     A
C47    C46     1.360   1_554 A
C47    C48     1.377   .     A
C47    C53     1.396   .     A
C48    N12     1.360   1_554 A
C48    N15     1.338   .     A
C49    C50     1.406   .     A
C49    H11     1.083   .     S
C50    C51     1.427   .     A
C50    O11     1.395   .     S
C51    C52     1.406   .     A
C51    O12     1.395   .     S
C52    H12     1.083   .     S
C53    C54     1.406   1_554 A
C53    H13     1.083   .     S
C54    C53     1.406   1_556 A
C54    C55     1.427   .     A
C54    O13     1.395   .     S
C55    C56     1.406   .     A
C55    O14     1.395   .     S
C56    H14     1.083   .     S
N14    C57     1.360   1_556 A
N14    C60     1.360   .     A
N14    Ni2     1.896   .     S
C57    N14     1.360   1_554 A
C57    N15     1.338   .     A
C57    C58     1.376   .     A
C58    C59     1.363   1_554 A
C58    C64     1.399   .     A
C59    C58     1.363   1_556 A
C59    C60     1.376   .     A
C59    C61     1.399   .     A
C60    N16     1.338   .     A
C61    C62     1.406   1_556 A
C61    H15     1.082   .     S
C62    C61     1.406   1_554 A
C62    C63     1.388   .     A
C62    O15     1.381   .     S
C63    C64     1.406   .     A
C63    O16     1.381   .     S
C64    H16     1.082   .     S
O9     Cu3     1.814   1_556 S
O10    Cu3     1.814   1_556 S
O11    Zn2     1.803   .     S
O12    Zn2     1.803   .     S
O13    Zn7     1.803   .     S
O14    Zn7     1.803   .     S
O15    Cu2     1.814   .     S
O16    Cu2     1.814   .     S
C65    C66     1.406   .     A
C65    C70     1.398   .     A
C65    H17     1.082   .     S
C66    C67     1.388   .     A
C66    O17     1.381   .     S
C67    C68     1.406   .     A
C67    O18     1.381   .     S
C68    C69     1.399   .     A
C68    H18     1.082   .     S
C69    C70     1.363   .     A
C69    C72     1.376   .     A
C70    C71     1.376   .     A
C71    N17     1.360   .     A
C71    N24     1.338   .     A
N17    C72     1.360   .     A
N17    Ni3     1.896   .     S
C72    N18     1.338   1_554 A
N18    C72     1.338   1_556 A
N18    C73     1.338   .     A
C73    N19     1.360   1_556 A
C73    C76     1.377   .     A
N19    C73     1.360   1_554 A
N19    C74     1.360   .     A
N19    Ni3     1.896   .     S
C74    C75     1.377   .     A
C74    N21     1.338   .     A
C75    C76     1.360   1_554 A
C75    C84     1.396   .     A
C76    C75     1.360   1_556 A
C76    C81     1.396   .     A
N20    C77     1.360   .     A
N20    C80     1.360   .     A
N20    Ni3     1.896   .     S
C77    N21     1.338   .     A
C77    C78     1.377   .     A
C78    C79     1.360   .     A
C78    C88     1.396   .     A
C79    C80     1.377   .     A
C79    C85     1.396   1_554 A
C80    N23     1.338   1_554 A
C81    C82     1.406   .     A
C81    H19     1.083   .     S
C82    C83     1.427   .     A
C82    O19     1.395   .     S
C83    C84     1.406   1_556 A
C83    O20     1.395   .     S
C84    C83     1.406   1_554 A
C84    H20     1.083   .     S
C85    C79     1.396   1_556 A
C85    C86     1.406   1_556 A
C85    H21     1.083   .     S
C86    C85     1.406   1_554 A
C86    C87     1.427   .     A
C86    O21     1.395   .     S
C87    C88     1.406   .     A
C87    O22     1.395   .     S
C88    H22     1.083   .     S
N22    C89     1.360   1_554 A
N22    C92     1.360   .     A
N22    Ni3     1.896   .     S
C89    N22     1.360   1_556 A
C89    N23     1.338   .     A
C89    C90     1.376   .     A
N23    C80     1.338   1_556 A
C90    C91     1.363   1_556 A
C90    C96     1.399   .     A
C91    C90     1.363   1_554 A
C91    C92     1.376   .     A
C91    C93     1.399   .     A
C92    N24     1.338   .     A
C93    C94     1.406   1_554 A
C93    H23     1.082   .     S
C94    C93     1.406   1_556 A
C94    C95     1.388   .     A
C94    O23     1.381   .     S
C95    C96     1.406   .     A
C95    O24     1.381   .     S
C96    H24     1.082   .     S
O17    Cu3     1.814   1_565 S
O18    Cu3     1.814   1_565 S
O19    Zn8     1.803   .     S
O20    Zn8     1.803   .     S
O21    Zn3     1.803   .     S
O22    Zn3     1.803   .     S
O23    Cu4     1.814   1_556 S
O24    Cu4     1.814   1_556 S
C97    C98     1.406   .     A
C97    C102    1.398   .     A
C97    H25     1.082   .     S
C98    C99     1.388   .     A
C98    O25     1.381   .     S
C99    C100    1.406   1_556 A
C99    O26     1.381   .     S
C100   C99     1.406   1_554 A
C100   C101    1.399   1_554 A
C100   H26     1.082   .     S
C101   C100    1.399   1_556 A
C101   C102    1.363   .     A
C101   C104    1.376   .     A
C102   C103    1.376   .     A
C103   N25     1.360   .     A
C103   N32     1.338   .     A
N25    C104    1.360   .     A
N25    Ni4     1.896   .     S
C104   N26     1.338   1_556 A
N26    C104    1.338   1_554 A
N26    C105    1.338   .     A
C105   N27     1.360   1_554 A
C105   C108    1.377   .     A
N27    C105    1.360   1_556 A
N27    C106    1.360   .     A
N27    Ni4     1.896   .     S
C106   C107    1.377   1_556 A
C106   N29     1.338   .     A
C107   C106    1.377   1_554 A
C107   C108    1.360   .     A
C107   C116    1.396   .     A
C108   C113    1.396   .     A
N28    C109    1.360   .     A
N28    C112    1.360   1_556 A
N28    Ni4     1.896   .     S
C109   N29     1.338   .     A
C109   C110    1.377   .     A
C110   C111    1.360   1_556 A
C110   C120    1.396   .     A
C111   C110    1.360   1_554 A
C111   C112    1.377   .     A
C111   C117    1.396   .     A
C112   N28     1.360   1_554 A
C112   N31     1.338   .     A
C113   C114    1.406   .     A
C113   H27     1.083   .     S
C114   C115    1.427   .     A
C114   O27     1.395   .     S
C115   C116    1.406   .     A
C115   O28     1.395   .     S
C116   H28     1.083   .     S
C117   C118    1.406   1_554 A
C117   H29     1.083   .     S
C118   C117    1.406   1_556 A
C118   C119    1.427   .     A
C118   O29     1.395   .     S
C119   C120    1.406   .     A
C119   O30     1.395   .     S
C120   H30     1.083   .     S
N30    C121    1.360   1_556 A
N30    C124    1.360   .     A
N30    Ni4     1.896   .     S
C121   N30     1.360   1_554 A
C121   N31     1.338   .     A
C121   C122    1.376   .     A
C122   C123    1.363   1_554 A
C122   C128    1.399   .     A
C123   C122    1.363   1_556 A
C123   C124    1.376   .     A
C123   C125    1.399   .     A
C124   N32     1.338   .     A
C125   C126    1.406   1_556 A
C125   H31     1.082   .     S
C126   C125    1.406   1_554 A
C126   C127    1.388   .     A
C126   O31     1.381   .     S
C127   C128    1.406   .     A
C127   O32     1.381   .     S
C128   H32     1.082   .     S
O25    Cu1     1.814   1_556 S
O26    Cu1     1.814   1_556 S
O27    Zn4     1.803   .     S
O28    Zn4     1.803   .     S
O29    Zn5     1.803   .     S
O30    Zn5     1.803   .     S
O31    Cu4     1.814   1_455 S
O32    Cu4     1.814   1_455 S
C129   C130    1.406   .     A
C129   C134    1.396   .     A
C129   H33     1.083   .     S
C130   C131    1.427   1_554 A
C130   O33     1.395   .     S
C131   C130    1.427   1_556 A
C131   C132    1.406   .     A
C131   O34     1.395   .     S
C132   C133    1.396   .     A
C132   H34     1.083   .     S
C133   C134    1.360   1_556 A
C133   C136    1.377   .     A
C134   C133    1.360   1_554 A
C134   C135    1.377   .     A
C135   N33     1.360   .     A
C135   N40     1.338   .     A
N33    C136    1.360   1_554 A
N33    Ni5     1.896   .     S
C136   N33     1.360   1_556 A
C136   N34     1.338   .     A
N34    C137    1.338   .     A
C137   N35     1.360   .     A
C137   C140    1.376   .     A
N35    C138    1.360   .     A
N35    Ni5     1.896   1_556 S
C138   C139    1.376   .     A
C138   N37     1.338   .     A
C139   C140    1.363   .     A
C139   C148    1.399   .     A
C140   C145    1.399   .     A
N36    C141    1.360   1_554 A
N36    C144    1.360   .     A
N36    Ni5     1.896   .     S
C141   N36     1.360   1_556 A
C141   N37     1.338   .     A
C141   C142    1.377   .     A
C142   C143    1.360   1_556 A
C142   C152    1.396   .     A
C143   C142    1.360   1_554 A
C143   C144    1.377   .     A
C143   C149    1.396   .     A
C144   N39     1.338   .     A
C145   C146    1.406   .     A
C145   H35     1.082   .     S
C146   C147    1.388   .     A
C146   O35     1.381   .     S
C147   C148    1.406   .     A
C147   O36     1.381   .     S
C148   H36     1.082   .     S
C149   C150    1.406   .     A
C149   H37     1.083   .     S
C150   C151    1.427   1_554 A
C150   O37     1.395   .     S
C151   C150    1.427   1_556 A
C151   C152    1.406   .     A
C151   O38     1.395   .     S
C152   H38     1.083   .     S
N38    C153    1.360   .     A
N38    C156    1.360   .     A
N38    Ni5     1.896   .     S
C153   N39     1.338   .     A
C153   C154    1.376   .     A
C154   C155    1.363   .     A
C154   C160    1.399   .     A
C155   C156    1.376   .     A
C155   C157    1.399   .     A
C156   N40     1.338   .     A
C157   C158    1.406   .     A
C157   H39     1.082   .     S
C158   C159    1.388   .     A
C158   O39     1.381   .     S
C159   C160    1.406   .     A
C159   O40     1.381   .     S
C160   H40     1.082   .     S
O33    Zn5     1.803   1_554 S
O34    Zn5     1.803   .     S
O35    Cu5     1.814   .     S
O36    Cu5     1.814   .     S
O37    Zn1     1.803   .     S
O38    Zn1     1.803   1_556 S
O39    Cu5     1.814   .     S
O40    Cu5     1.814   .     S
Ni5    N35     1.896   1_554 S
C161   C162    1.406   .     A
C161   C166    1.399   .     A
C161   H41     1.082   .     S
C162   C163    1.388   .     A
C162   O41     1.381   .     S
C163   C164    1.406   .     A
C163   O42     1.381   .     S
C164   C165    1.399   .     A
C164   H42     1.082   .     S
C165   C166    1.363   .     A
C165   C168    1.376   .     A
C166   C167    1.376   .     A
C167   N41     1.360   .     A
C167   N48     1.338   .     A
N41    C168    1.360   .     A
N41    Ni6     1.896   1_556 S
C168   N42     1.338   .     A
N42    C169    1.338   .     A
C169   N43     1.360   1_556 A
C169   C172    1.377   .     A
N43    C169    1.360   1_554 A
N43    C170    1.360   .     A
N43    Ni6     1.896   .     S
C170   C171    1.377   .     A
C170   N45     1.338   .     A
C171   C172    1.360   1_554 A
C171   C180    1.396   .     A
C172   C171    1.360   1_556 A
C172   C177    1.396   .     A
N44    C173    1.360   .     A
N44    C176    1.360   .     A
N44    Ni6     1.896   .     S
C173   N45     1.338   .     A
C173   C174    1.376   .     A
C174   C175    1.363   .     A
C174   C184    1.399   .     A
C175   C176    1.376   .     A
C175   C181    1.399   .     A
C176   N47     1.338   .     A
C177   C178    1.406   .     A
C177   H43     1.083   .     S
C178   C179    1.427   1_556 A
C178   O43     1.395   .     S
C179   C178    1.427   1_554 A
C179   C180    1.406   .     A
C179   O44     1.395   .     S
C180   H44     1.083   .     S
C181   C182    1.406   .     A
C181   H45     1.082   .     S
C182   C183    1.388   .     A
C182   O45     1.381   .     S
C183   C184    1.406   .     A
C183   O46     1.381   .     S
C184   H46     1.082   .     S
N46    C185    1.360   .     A
N46    C188    1.360   1_554 A
N46    Ni6     1.896   .     S
C185   N47     1.338   .     A
C185   C186    1.377   .     A
C186   C187    1.360   1_554 A
C186   C192    1.396   .     A
C187   C186    1.360   1_556 A
C187   C188    1.377   .     A
C187   C189    1.396   .     A
C188   N46     1.360   1_556 A
C188   N48     1.338   .     A
C189   C190    1.406   .     A
C189   H47     1.083   .     S
C190   C191    1.427   1_556 A
C190   O47     1.395   .     S
C191   C190    1.427   1_554 A
C191   C192    1.406   .     A
C191   O48     1.395   .     S
C192   H48     1.083   .     S
O41    Cu6     1.814   .     S
O42    Cu6     1.814   .     S
O43    Zn6     1.803   1_556 S
O44    Zn6     1.803   .     S
O45    Cu6     1.814   .     S
O46    Cu6     1.814   .     S
O47    Zn2     1.803   1_556 S
O48    Zn2     1.803   .     S
Ni6    N41     1.896   1_554 S
C193   C194    1.406   .     A
C193   C198    1.396   .     A
C193   H49     1.083   .     S
C194   C195    1.427   1_554 A
C194   O49     1.395   .     S
C195   C194    1.427   1_556 A
C195   C196    1.406   .     A
C195   O50     1.395   .     S
C196   C197    1.396   .     A
C196   H50     1.083   .     S
C197   C198    1.360   1_556 A
C197   C200    1.377   .     A
C198   C197    1.360   1_554 A
C198   C199    1.377   .     A
C199   N49     1.360   .     A
C199   N56     1.338   .     A
N49    C200    1.360   1_554 A
N49    Ni7     1.896   .     S
C200   N49     1.360   1_556 A
C200   N50     1.338   .     A
N50    C201    1.338   .     A
C201   N51     1.360   .     A
C201   C204    1.376   .     A
N51    C202    1.360   .     A
N51    Ni7     1.896   1_556 S
C202   C203    1.376   .     A
C202   N53     1.338   .     A
C203   C204    1.363   .     A
C203   C212    1.399   .     A
C204   C209    1.399   .     A
N52    C205    1.360   1_554 A
N52    C208    1.360   .     A
N52    Ni7     1.896   .     S
C205   N52     1.360   1_556 A
C205   N53     1.338   .     A
C205   C206    1.377   .     A
C206   C207    1.360   1_556 A
C206   C216    1.396   .     A
C207   C206    1.360   1_554 A
C207   C208    1.377   .     A
C207   C213    1.396   .     A
C208   N55     1.338   .     A
C209   C210    1.406   .     A
C209   H51     1.082   .     S
C210   C211    1.388   .     A
C210   O51     1.381   .     S
C211   C212    1.406   .     A
C211   O52     1.381   .     S
C212   H52     1.082   .     S
C213   C214    1.406   .     A
C213   H53     1.083   .     S
C214   C215    1.427   1_554 A
C214   O53     1.395   .     S
C215   C214    1.427   1_556 A
C215   C216    1.406   .     A
C215   O54     1.395   .     S
C216   H54     1.083   .     S
N54    C217    1.360   .     A
N54    C220    1.360   .     A
N54    Ni7     1.896   .     S
C217   N55     1.338   .     A
C217   C218    1.376   .     A
C218   C219    1.363   .     A
C218   C224    1.399   .     A
C219   C220    1.376   .     A
C219   C221    1.399   .     A
C220   N56     1.338   .     A
C221   C222    1.406   .     A
C221   H55     1.082   .     S
C222   C223    1.388   .     A
C222   O55     1.381   .     S
C223   C224    1.406   .     A
C223   O56     1.381   .     S
C224   H56     1.082   .     S
O49    Zn7     1.803   1_554 S
O50    Zn7     1.803   .     S
O51    Cu7     1.814   .     S
O52    Cu7     1.814   .     S
O53    Zn3     1.803   .     S
O54    Zn3     1.803   1_556 S
O55    Cu7     1.814   .     S
O56    Cu7     1.814   .     S
Ni7    N51     1.896   1_554 S
C225   C226    1.406   .     A
C225   C230    1.399   .     A
C225   H57     1.082   .     S
C226   C227    1.388   .     A
C226   O57     1.381   .     S
C227   C228    1.406   .     A
C227   O58     1.381   .     S
C228   C229    1.399   .     A
C228   H58     1.082   .     S
C229   C230    1.363   .     A
C229   C232    1.376   .     A
C230   C231    1.376   .     A
C231   N57     1.360   .     A
C231   N64     1.338   .     A
N57    C232    1.360   .     A
N57    Ni8     1.896   .     S
C232   N58     1.338   .     A
N58    C233    1.338   .     A
C233   N59     1.360   .     A
C233   C236    1.377   .     A
N59    C234    1.360   1_554 A
N59    Ni8     1.896   .     S
C234   N59     1.360   1_556 A
C234   C235    1.377   .     A
C234   N61     1.338   .     A
C235   C236    1.360   1_556 A
C235   C244    1.396   .     A
C236   C235    1.360   1_554 A
C236   C241    1.396   .     A
N60    C237    1.360   .     A
N60    C240    1.360   .     A
N60    Ni8     1.896   1_556 S
C237   N61     1.338   .     A
C237   C238    1.376   .     A
C238   C239    1.363   .     A
C238   C248    1.399   .     A
C239   C240    1.376   .     A
C239   C245    1.399   .     A
C240   N63     1.338   .     A
C241   C242    1.406   .     A
C241   H59     1.083   .     S
C242   C243    1.427   1_554 A
C242   O59     1.395   .     S
C243   C242    1.427   1_556 A
C243   C244    1.406   .     A
C243   O60     1.395   .     S
C244   H60     1.083   .     S
C245   C246    1.406   .     A
C245   H61     1.082   .     S
C246   C247    1.388   .     A
C246   O61     1.381   .     S
C247   C248    1.406   .     A
C247   O62     1.381   .     S
C248   H62     1.082   .     S
N62    C249    1.360   1_554 A
N62    C252    1.360   .     A
N62    Ni8     1.896   .     S
C249   N62     1.360   1_556 A
C249   N63     1.338   .     A
C249   C250    1.377   .     A
C250   C251    1.360   1_556 A
C250   C256    1.396   .     A
C251   C250    1.360   1_554 A
C251   C252    1.377   .     A
C251   C253    1.396   .     A
C252   N64     1.338   .     A
C253   C254    1.406   .     A
C253   H63     1.083   .     S
C254   C255    1.427   1_554 A
C254   O63     1.395   .     S
C255   C254    1.427   1_556 A
C255   C256    1.406   .     A
C255   O64     1.395   .     S
C256   H64     1.083   .     S
O57    Cu8     1.814   .     S
O58    Cu8     1.814   .     S
O59    Zn4     1.803   .     S
O60    Zn4     1.803   1_556 S
O61    Cu8     1.814   .     S
O62    Cu8     1.814   .     S
O63    Zn8     1.803   1_554 S
O64    Zn8     1.803   .     S
Ni8    N60     1.896   1_554 S
Cu1    O26     1.814   1_554 S
Cu1    O25     1.814   1_554 S
Cu1    O2      1.814   1_565 S
Cu1    O1      1.814   1_565 S
Cu2    O8      1.814   1_654 S
Cu2    O7      1.814   1_654 S
Cu3    O17     1.814   1_545 S
Cu3    O18     1.814   1_545 S
Cu3    O9      1.814   1_554 S
Cu3    O10     1.814   1_554 S
Cu4    O31     1.814   1_655 S
Cu4    O32     1.814   1_655 S
Cu4    O23     1.814   1_554 S
Cu4    O24     1.814   1_554 S
Zn1    O38     1.803   1_554 S
Zn2    O47     1.803   1_554 S
Zn3    O54     1.803   1_554 S
Zn4    O60     1.803   1_554 S
Zn5    O33     1.803   1_556 S
Zn6    O4      1.803   1_554 S
Zn6    O43     1.803   1_554 S
Zn6    O3      1.803   1_554 S
Zn7    O49     1.803   1_556 S
Zn8    O63     1.803   1_556 S
