data_sse-PcMN_O-Zntet
_audit_creation_date              2021-11-06
_audit_creation_method            'Materials Studio'
_symmetry_space_group_name_H-M    'P1'
_symmetry_Int_Tables_number       1
_symmetry_cell_setting            triclinic
loop_
_symmetry_equiv_pos_as_xyz
  x,y,z
_cell_length_a                    67.7408
_cell_length_b                    67.7408
_cell_length_c                    22.7688
_cell_angle_alpha                 90.0089
_cell_angle_beta                  90.0087
_cell_angle_gamma                 89.9992
loop_
_atom_site_label
_atom_site_type_symbol
_atom_site_fract_x
_atom_site_fract_y
_atom_site_fract_z
_atom_site_U_iso_or_equiv
_atom_site_adp_type
_atom_site_occupancy
C1     C     0.18906   0.09075   0.00209   0.00000  Uiso   1.00
C2     C     0.17865   0.07271   0.00208   0.00000  Uiso   1.00
C3     C     0.15748   0.07271   0.00212   0.00000  Uiso   1.00
C4     C     0.14707   0.09075   0.00217   0.00000  Uiso   1.00
C5     C     0.15803   0.10817   0.00218   0.00000  Uiso   1.00
C6     C     0.17809   0.10817   0.00214   0.00000  Uiso   1.00
C7     C     0.18383   0.12767   0.00211   0.00000  Uiso   1.00
N1     N     0.16806   0.14008   0.00213   0.00000  Uiso   1.00
C8     C     0.15230   0.12767   0.00217   0.00000  Uiso   1.00
N2     N     0.13339   0.13338   0.00219   0.00000  Uiso   1.00
C9     C     0.12767   0.15229   0.00217   0.00000  Uiso   1.00
N3     N     0.14009   0.16806   0.00213   0.00000  Uiso   1.00
C10    C     0.12767   0.18382   0.00211   0.00000  Uiso   1.00
C11    C     0.10817   0.17809   0.00213   0.00000  Uiso   1.00
C12    C     0.10817   0.15803   0.00217   0.00000  Uiso   1.00
N4     N     0.16806   0.19603   0.00199   0.00000  Uiso   1.00
C13    C     0.15230   0.20844   0.00198   0.00000  Uiso   1.00
N5     N     0.13339   0.20273   0.00203   0.00000  Uiso   1.00
C14    C     0.15804   0.22794   0.00190   0.00000  Uiso   1.00
C15    C     0.17809   0.22794   0.00186   0.00000  Uiso   1.00
C16    C     0.18383   0.20845   0.00192   0.00000  Uiso   1.00
C17    C     0.09075   0.14706   0.00217   0.00000  Uiso   1.00
C18    C     0.07271   0.15748   0.00211   0.00000  Uiso   1.00
C19    C     0.07271   0.17865   0.00207   0.00000  Uiso   1.00
C20    C     0.09076   0.18906   0.00209   0.00000  Uiso   1.00
C21    C     0.18904   0.24537   0.00177   0.00000  Uiso   1.00
C22    C     0.17862   0.26342   0.00171   0.00000  Uiso   1.00
C23    C     0.15749   0.26341   0.00175   0.00000  Uiso   1.00
C24    C     0.14708   0.24536   0.00184   0.00000  Uiso   1.00
N6     N     0.19603   0.16806   0.00200   0.00000  Uiso   1.00
C25    C     0.20845   0.18382   0.00193   0.00000  Uiso   1.00
N7     N     0.20274   0.20273   0.00189   0.00000  Uiso   1.00
C26    C     0.22795   0.17808   0.00187   0.00000  Uiso   1.00
C27    C     0.22795   0.15803   0.00191   0.00000  Uiso   1.00
C28    C     0.20845   0.15229   0.00199   0.00000  Uiso   1.00
C29    C     0.24537   0.14707   0.00186   0.00000  Uiso   1.00
C30    C     0.26342   0.15748   0.00177   0.00000  Uiso   1.00
C31    C     0.26342   0.17861   0.00173   0.00000  Uiso   1.00
C32    C     0.24538   0.18903   0.00178   0.00000  Uiso   1.00
N8     N     0.20274   0.13338   0.00204   0.00000  Uiso   1.00
H1     H     0.20505   0.09118   0.00206   0.00000  Uiso   1.00
H2     H     0.13108   0.09118   0.00219   0.00000  Uiso   1.00
H3     H     0.09118   0.13107   0.00219   0.00000  Uiso   1.00
H4     H     0.09119   0.20505   0.00205   0.00000  Uiso   1.00
H5     H     0.20503   0.24494   0.00174   0.00000  Uiso   1.00
H6     H     0.13109   0.24493   0.00187   0.00000  Uiso   1.00
H7     H     0.24493   0.13108   0.00189   0.00000  Uiso   1.00
H8     H     0.24495   0.20502   0.00175   0.00000  Uiso   1.00
C33    C     0.28141   0.14723   0.00171   0.00000  Uiso   1.00
C34    C     0.29923   0.15761   0.00163   0.00000  Uiso   1.00
C35    C     0.29924   0.17846   0.00160   0.00000  Uiso   1.00
C36    C     0.28142   0.18885   0.00164   0.00000  Uiso   1.00
C37    C     0.18887   0.05465   0.00200   0.00000  Uiso   1.00
C38    C     0.17821   0.03701   0.00195   0.00000  Uiso   1.00
C39    C     0.15792   0.03701   0.00198   0.00000  Uiso   1.00
C40    C     0.14726   0.05465   0.00207   0.00000  Uiso   1.00
C41    C     0.05466   0.14726   0.00207   0.00000  Uiso   1.00
C42    C     0.03701   0.15792   0.00198   0.00000  Uiso   1.00
C43    C     0.03701   0.17821   0.00195   0.00000  Uiso   1.00
C44    C     0.05466   0.18887   0.00200   0.00000  Uiso   1.00
C45    C     0.18886   0.28142   0.00162   0.00000  Uiso   1.00
C46    C     0.17847   0.29923   0.00157   0.00000  Uiso   1.00
C47    C     0.15762   0.29922   0.00160   0.00000  Uiso   1.00
C48    C     0.14724   0.28140   0.00168   0.00000  Uiso   1.00
H9     H     0.28165   0.13123   0.00173   0.00000  Uiso   1.00
O1     O     0.31716   0.14748   0.00159   0.00000  Uiso   1.00
O2     O     0.31718   0.18857   0.00154   0.00000  Uiso   1.00
H10    H     0.28167   0.20485   0.00162   0.00000  Uiso   1.00
H11    H     0.20486   0.05426   0.00197   0.00000  Uiso   1.00
O3     O     0.18719   0.01870   0.00185   0.00000  Uiso   1.00
O4     O     0.14895   0.01870   0.00190   0.00000  Uiso   1.00
H12    H     0.13127   0.05426   0.00209   0.00000  Uiso   1.00
H13    H     0.05426   0.13127   0.00209   0.00000  Uiso   1.00
O5     O     0.01871   0.14895   0.00190   0.00000  Uiso   1.00
O6     O     0.01871   0.18719   0.00185   0.00000  Uiso   1.00
H14    H     0.05427   0.20486   0.00197   0.00000  Uiso   1.00
H15    H     0.20486   0.28167   0.00160   0.00000  Uiso   1.00
O7     O     0.18858   0.31717   0.00151   0.00000  Uiso   1.00
O8     O     0.14749   0.31716   0.00156   0.00000  Uiso   1.00
H16    H     0.13124   0.28165   0.00171   0.00000  Uiso   1.00
Ni1    Ni    0.16806   0.16805   0.00207   0.00000  Uiso   1.00
C49    C     0.81094   0.09076   0.00089   0.00000  Uiso   1.00
C50    C     0.82135   0.07272   0.00078   0.00000  Uiso   1.00
C51    C     0.84252   0.07271   0.00074   0.00000  Uiso   1.00
C52    C     0.85294   0.09075   0.00081   0.00000  Uiso   1.00
C53    C     0.84197   0.10818   0.00091   0.00000  Uiso   1.00
C54    C     0.82191   0.10818   0.00095   0.00000  Uiso   1.00
C55    C     0.81618   0.12768   0.00101   0.00000  Uiso   1.00
N9     N     0.83194   0.14009   0.00100   0.00000  Uiso   1.00
C56    C     0.84771   0.12767   0.00095   0.00000  Uiso   1.00
N10    N     0.86662   0.13339   0.00095   0.00000  Uiso   1.00
C57    C     0.87233   0.15230   0.00097   0.00000  Uiso   1.00
N11    N     0.85992   0.16806   0.00094   0.00000  Uiso   1.00
C58    C     0.87233   0.18383   0.00094   0.00000  Uiso   1.00
C59    C     0.89183   0.17810   0.00099   0.00000  Uiso   1.00
C60    C     0.89183   0.15804   0.00101   0.00000  Uiso   1.00
N12    N     0.83194   0.19604   0.00093   0.00000  Uiso   1.00
C61    C     0.84770   0.20845   0.00087   0.00000  Uiso   1.00
N13    N     0.86661   0.20274   0.00089   0.00000  Uiso   1.00
C62    C     0.84197   0.22795   0.00080   0.00000  Uiso   1.00
C63    C     0.82191   0.22795   0.00082   0.00000  Uiso   1.00
C64    C     0.81618   0.20845   0.00091   0.00000  Uiso   1.00
C65    C     0.90925   0.14707   0.00111   0.00000  Uiso   1.00
C66    C     0.92729   0.15748   0.00120   0.00000  Uiso   1.00
C67    C     0.92729   0.17866   0.00118   0.00000  Uiso   1.00
C68    C     0.90925   0.18907   0.00106   0.00000  Uiso   1.00
C69    C     0.81096   0.24538   0.00076   0.00000  Uiso   1.00
C70    C     0.82138   0.26342   0.00067   0.00000  Uiso   1.00
C71    C     0.84252   0.26342   0.00065   0.00000  Uiso   1.00
C72    C     0.85293   0.24537   0.00071   0.00000  Uiso   1.00
N14    N     0.80397   0.16807   0.00104   0.00000  Uiso   1.00
C73    C     0.79155   0.18383   0.00107   0.00000  Uiso   1.00
N15    N     0.79727   0.20274   0.00099   0.00000  Uiso   1.00
C74    C     0.77205   0.17809   0.00117   0.00000  Uiso   1.00
C75    C     0.77206   0.15804   0.00120   0.00000  Uiso   1.00
C76    C     0.79155   0.15230   0.00111   0.00000  Uiso   1.00
C77    C     0.75464   0.14708   0.00130   0.00000  Uiso   1.00
C78    C     0.73659   0.15749   0.00139   0.00000  Uiso   1.00
C79    C     0.73658   0.17863   0.00137   0.00000  Uiso   1.00
C80    C     0.75463   0.18904   0.00126   0.00000  Uiso   1.00
N16    N     0.79727   0.13339   0.00108   0.00000  Uiso   1.00
H17    H     0.79495   0.09119   0.00092   0.00000  Uiso   1.00
H18    H     0.86893   0.09118   0.00077   0.00000  Uiso   1.00
H19    H     0.90882   0.13108   0.00113   0.00000  Uiso   1.00
H20    H     0.90881   0.20506   0.00106   0.00000  Uiso   1.00
H21    H     0.79497   0.24495   0.00078   0.00000  Uiso   1.00
H22    H     0.86892   0.24493   0.00070   0.00000  Uiso   1.00
H23    H     0.75507   0.13109   0.00132   0.00000  Uiso   1.00
H24    H     0.75506   0.20503   0.00124   0.00000  Uiso   1.00
C81    C     0.71859   0.14724   0.00149   0.00000  Uiso   1.00
C82    C     0.70077   0.15762   0.00156   0.00000  Uiso   1.00
C83    C     0.70077   0.17847   0.00155   0.00000  Uiso   1.00
C84    C     0.71858   0.18886   0.00145   0.00000  Uiso   1.00
C85    C     0.81113   0.05466   0.00069   0.00000  Uiso   1.00
C86    C     0.82179   0.03702   0.00055   0.00000  Uiso   1.00
C87    C     0.84208   0.03702   0.00051   0.00000  Uiso   1.00
C88    C     0.85274   0.05466   0.00060   0.00000  Uiso   1.00
C89    C     0.94534   0.14727   0.00134   0.00000  Uiso   1.00
C90    C     0.96299   0.15793   0.00146   0.00000  Uiso   1.00
C91    C     0.96299   0.17821   0.00143   0.00000  Uiso   1.00
C92    C     0.94534   0.18887   0.00129   0.00000  Uiso   1.00
C93    C     0.81114   0.28143   0.00061   0.00000  Uiso   1.00
C94    C     0.82154   0.29924   0.00055   0.00000  Uiso   1.00
C95    C     0.84238   0.29923   0.00053   0.00000  Uiso   1.00
C96    C     0.85276   0.28141   0.00058   0.00000  Uiso   1.00
H25    H     0.71835   0.13125   0.00151   0.00000  Uiso   1.00
O9     O     0.68284   0.14749   0.00163   0.00000  Uiso   1.00
O10    O     0.68282   0.18859   0.00160   0.00000  Uiso   1.00
H26    H     0.71833   0.20486   0.00144   0.00000  Uiso   1.00
H27    H     0.79514   0.05427   0.00072   0.00000  Uiso   1.00
O11    O     0.81281   0.01871   0.00045   0.00000  Uiso   1.00
O12    O     0.85106   0.01871   0.00036   0.00000  Uiso   1.00
H28    H     0.86873   0.05427   0.00056   0.00000  Uiso   1.00
H29    H     0.94574   0.13128   0.00137   0.00000  Uiso   1.00
O13    O     0.98130   0.14895   0.00161   0.00000  Uiso   1.00
O14    O     0.98130   0.18719   0.00156   0.00000  Uiso   1.00
H30    H     0.94574   0.20486   0.00128   0.00000  Uiso   1.00
H31    H     0.79515   0.28168   0.00063   0.00000  Uiso   1.00
O15    O     0.81142   0.31719   0.00051   0.00000  Uiso   1.00
O16    O     0.85251   0.31717   0.00049   0.00000  Uiso   1.00
H32    H     0.86876   0.28165   0.00056   0.00000  Uiso   1.00
Ni2    Ni    0.83194   0.16806   0.00097   0.00000  Uiso   1.00
C97    C     0.81094   0.90925   0.00014   0.00000  Uiso   1.00
C98    C     0.82135   0.92729   0.00012   0.00000  Uiso   1.00
C99    C     0.84252   0.92729   0.00006   0.00000  Uiso   1.00
C100   C     0.85293   0.90925   0.00003   0.00000  Uiso   1.00
C101   C     0.84197   0.89183   0.00006   0.00000  Uiso   1.00
C102   C     0.82191   0.89183   0.00011   0.00000  Uiso   1.00
C103   C     0.81617   0.87233   0.00016   0.00000  Uiso   1.00
N17    N     0.83194   0.85992   0.00014   0.00000  Uiso   1.00
C104   C     0.84770   0.87233   0.00007   0.00000  Uiso   1.00
N18    N     0.86661   0.86662   0.00005   0.00000  Uiso   1.00
C105   C     0.87233   0.84771   0.00007   0.00000  Uiso   1.00
N19    N     0.85991   0.83194   0.00014   0.00000  Uiso   1.00
C106   C     0.87233   0.81618   0.00016   0.00000  Uiso   1.00
C107   C     0.89183   0.82191   0.00011   0.00000  Uiso   1.00
C108   C     0.89183   0.84197   0.00006   0.00000  Uiso   1.00
N20    N     0.83194   0.80397   0.00030   0.00000  Uiso   1.00
C109   C     0.84770   0.79155   0.00031   0.00000  Uiso   1.00
N21    N     0.86661   0.79727   0.00024   0.00000  Uiso   1.00
C110   C     0.84196   0.77206   0.00039   0.00000  Uiso   1.00
C111   C     0.82191   0.77206   0.00043   0.00000  Uiso   1.00
C112   C     0.81617   0.79155   0.00038   0.00000  Uiso   1.00
C113   C     0.90925   0.85294   0.00003   0.00000  Uiso   1.00
C114   C     0.92729   0.84252   0.00006   0.00000  Uiso   1.00
C115   C     0.92729   0.82135   0.00012   0.00000  Uiso   1.00
C116   C     0.90924   0.81094   0.00014   0.00000  Uiso   1.00
C117   C     0.81096   0.75463   0.00052   0.00000  Uiso   1.00
C118   C     0.82138   0.73658   0.00056   0.00000  Uiso   1.00
C119   C     0.84251   0.73659   0.00051   0.00000  Uiso   1.00
C120   C     0.85292   0.75464   0.00043   0.00000  Uiso   1.00
N22    N     0.80396   0.83194   0.00030   0.00000  Uiso   1.00
C121   C     0.79155   0.81618   0.00037   0.00000  Uiso   1.00
N23    N     0.79726   0.79727   0.00041   0.00000  Uiso   1.00
C122   C     0.77205   0.82192   0.00042   0.00000  Uiso   1.00
C123   C     0.77205   0.84197   0.00038   0.00000  Uiso   1.00
C124   C     0.79155   0.84771   0.00030   0.00000  Uiso   1.00
C125   C     0.75463   0.85293   0.00041   0.00000  Uiso   1.00
C126   C     0.73658   0.84252   0.00050   0.00000  Uiso   1.00
C127   C     0.73658   0.82139   0.00054   0.00000  Uiso   1.00
C128   C     0.75462   0.81097   0.00051   0.00000  Uiso   1.00
N24    N     0.79726   0.86662   0.00023   0.00000  Uiso   1.00
H33    H     0.79495   0.90882   0.00018   0.00000  Uiso   1.00
H34    H     0.86892   0.90882  -0.00001   0.00000  Uiso   1.00
H35    H     0.90882   0.86893  -0.00001   0.00000  Uiso   1.00
H36    H     0.90881   0.79495   0.00019   0.00000  Uiso   1.00
H37    H     0.79497   0.75506   0.00055   0.00000  Uiso   1.00
H38    H     0.86891   0.75507   0.00039   0.00000  Uiso   1.00
H39    H     0.75507   0.86892   0.00037   0.00000  Uiso   1.00
H40    H     0.75505   0.79498   0.00054   0.00000  Uiso   1.00
C129   C     0.71859   0.85277   0.00053   0.00000  Uiso   1.00
C130   C     0.70077   0.84239   0.00060   0.00000  Uiso   1.00
C131   C     0.70076   0.82154   1.00064   0.00000  Uiso   1.00
C132   C     0.71858   0.81115   1.00061   0.00000  Uiso   1.00
C133   C     0.81113   0.94534   0.00016   0.00000  Uiso   1.00
C134   C     0.82179   0.96299   0.00017   0.00000  Uiso   1.00
C135   C     0.84208   0.96299   0.00012   0.00000  Uiso   1.00
C136   C     0.85274   0.94535   0.00006   0.00000  Uiso   1.00
C137   C     0.94534   0.85274   0.00006   0.00000  Uiso   1.00
C138   C     0.96299   0.84208   0.00012   0.00000  Uiso   1.00
C139   C     0.96299   0.82179   0.00017   0.00000  Uiso   1.00
C140   C     0.94534   0.81113   0.00016   0.00000  Uiso   1.00
C141   C     0.81114   0.71858   1.00063   0.00000  Uiso   1.00
C142   C     0.82153   0.70077   1.00066   0.00000  Uiso   1.00
C143   C     0.84238   0.70078   0.00062   0.00000  Uiso   1.00
C144   C     0.85276   0.71859   0.00055   0.00000  Uiso   1.00
H41    H     0.71835   0.86877   0.00049   0.00000  Uiso   1.00
O17    O     0.68284   0.85252   0.00061   0.00000  Uiso   1.00
O18    O     0.68282   0.81143   1.00068   0.00000  Uiso   1.00
H42    H     0.71832   0.79515   1.00064   0.00000  Uiso   1.00
H43    H     0.79514   0.94574   0.00021   0.00000  Uiso   1.00
O19    O     0.81281   0.98130   0.00024   0.00000  Uiso   1.00
O20    O     0.85106   0.98130   0.00015   0.00000  Uiso   1.00
H44    H     0.86873   0.94574   0.00002   0.00000  Uiso   1.00
H45    H     0.94574   0.86873   0.00002   0.00000  Uiso   1.00
O21    O     0.98129   0.85105   0.00015   0.00000  Uiso   1.00
O22    O     0.98129   0.81281   0.00024   0.00000  Uiso   1.00
H46    H     0.94573   0.79514   0.00021   0.00000  Uiso   1.00
H47    H     0.79514   0.71833   1.00066   0.00000  Uiso   1.00
O23    O     0.81142   0.68282   1.00071   0.00000  Uiso   1.00
O24    O     0.85251   0.68284   1.00064   0.00000  Uiso   1.00
H48    H     0.86876   0.71835   0.00052   0.00000  Uiso   1.00
Ni3    Ni    0.83194   0.83194   0.00022   0.00000  Uiso   1.00
C145   C     0.18906   0.90924   0.00107   0.00000  Uiso   1.00
C146   C     0.17865   0.92728   0.00118   0.00000  Uiso   1.00
C147   C     0.15748   0.92728   0.00120   0.00000  Uiso   1.00
C148   C     0.14706   0.90924   0.00111   0.00000  Uiso   1.00
C149   C     0.15803   0.89182   0.00101   0.00000  Uiso   1.00
C150   C     0.17809   0.89182   0.00099   0.00000  Uiso   1.00
C151   C     0.18382   0.87232   0.00094   0.00000  Uiso   1.00
N25    N     0.16806   0.85991   0.00094   0.00000  Uiso   1.00
C152   C     0.15229   0.87233   0.00097   0.00000  Uiso   1.00
N26    N     0.13338   0.86661   0.00096   0.00000  Uiso   1.00
C153   C     0.12767   0.84770   0.00095   0.00000  Uiso   1.00
N27    N     0.14008   0.83194   0.00100   0.00000  Uiso   1.00
C154   C     0.12767   0.81617   0.00101   0.00000  Uiso   1.00
C155   C     0.10817   0.82190   0.00095   0.00000  Uiso   1.00
C156   C     0.10817   0.84196   0.00091   0.00000  Uiso   1.00
N28    N     0.16806   0.80396   0.00103   0.00000  Uiso   1.00
C157   C     0.15230   0.79155   0.00110   0.00000  Uiso   1.00
N29    N     0.13339   0.79726   0.00107   0.00000  Uiso   1.00
C158   C     0.15803   0.77205   0.00119   0.00000  Uiso   1.00
C159   C     0.17809   0.77205   0.00116   0.00000  Uiso   1.00
C160   C     0.18382   0.79154   0.00106   0.00000  Uiso   1.00
C161   C     0.09075   0.85293   0.00081   0.00000  Uiso   1.00
C162   C     0.07271   0.84252   0.00074   0.00000  Uiso   1.00
C163   C     0.07271   0.82134   0.00078   0.00000  Uiso   1.00
C164   C     0.09075   0.81093   0.00090   0.00000  Uiso   1.00
C165   C     0.18904   0.75462   0.00124   0.00000  Uiso   1.00
C166   C     0.17862   0.73657   0.00135   0.00000  Uiso   1.00
C167   C     0.15748   0.73658   0.00137   0.00000  Uiso   1.00
C168   C     0.14707   0.75463   0.00129   0.00000  Uiso   1.00
N30    N     0.19603   0.83193   0.00092   0.00000  Uiso   1.00
C169   C     0.20845   0.81617   0.00090   0.00000  Uiso   1.00
N31    N     0.20273   0.79726   0.00098   0.00000  Uiso   1.00
C170   C     0.22795   0.82191   0.00081   0.00000  Uiso   1.00
C171   C     0.22794   0.84196   0.00079   0.00000  Uiso   1.00
C172   C     0.20845   0.84770   0.00086   0.00000  Uiso   1.00
C173   C     0.24536   0.85292   0.00070   0.00000  Uiso   1.00
C174   C     0.26341   0.84251   0.00064   0.00000  Uiso   1.00
C175   C     0.26342   0.82137   0.00066   0.00000  Uiso   1.00
C176   C     0.24537   0.81096   0.00075   0.00000  Uiso   1.00
N32    N     0.20273   0.86661   0.00089   0.00000  Uiso   1.00
H49    H     0.20505   0.90881   0.00106   0.00000  Uiso   1.00
H50    H     0.13107   0.90882   0.00114   0.00000  Uiso   1.00
H51    H     0.09118   0.86892   0.00077   0.00000  Uiso   1.00
H52    H     0.09119   0.79494   0.00092   0.00000  Uiso   1.00
H53    H     0.20503   0.75505   0.00122   0.00000  Uiso   1.00
H54    H     0.13108   0.75507   0.00131   0.00000  Uiso   1.00
H55    H     0.24493   0.86891   0.00069   0.00000  Uiso   1.00
H56    H     0.24494   0.79497   0.00077   0.00000  Uiso   1.00
C177   C     0.28141   0.85276   0.00056   0.00000  Uiso   1.00
C178   C     0.29922   0.84238   0.00051   0.00000  Uiso   1.00
C179   C     0.29923   0.82153   0.00053   0.00000  Uiso   1.00
C180   C     0.28142   0.81114   0.00060   0.00000  Uiso   1.00
C181   C     0.18887   0.94533   0.00129   0.00000  Uiso   1.00
C182   C     0.17821   0.96298   0.00144   0.00000  Uiso   1.00
C183   C     0.15792   0.96298   0.00146   0.00000  Uiso   1.00
C184   C     0.14726   0.94534   0.00134   0.00000  Uiso   1.00
C185   C     0.05466   0.85273   0.00060   0.00000  Uiso   1.00
C186   C     0.03701   0.84207   0.00051   0.00000  Uiso   1.00
C187   C     0.03701   0.82179   0.00056   0.00000  Uiso   1.00
C188   C     0.05466   0.81113   0.00069   0.00000  Uiso   1.00
C189   C     0.18886   0.71857   0.00143   0.00000  Uiso   1.00
C190   C     0.17846   0.70076   0.00152   0.00000  Uiso   1.00
C191   C     0.15762   0.70077   0.00154   0.00000  Uiso   1.00
C192   C     0.14724   0.71859   0.00147   0.00000  Uiso   1.00
H57    H     0.28165   0.86875   0.00055   0.00000  Uiso   1.00
O25    O     0.31716   0.85251   0.00046   0.00000  Uiso   1.00
O26    O     0.31718   0.81142   0.00049   0.00000  Uiso   1.00
H58    H     0.28167   0.79514   0.00061   0.00000  Uiso   1.00
H59    H     0.20486   0.94573   0.00128   0.00000  Uiso   1.00
O27    O     0.18719   0.98129   0.00156   0.00000  Uiso   1.00
O28    O     0.14894   0.98129   0.00162   0.00000  Uiso   1.00
H60    H     0.13127   0.94573   0.00137   0.00000  Uiso   1.00
H61    H     0.05426   0.86872   0.00056   0.00000  Uiso   1.00
O29    O     0.01870   0.85105   0.00036   0.00000  Uiso   1.00
O30    O     0.01870   0.81281   0.00045   0.00000  Uiso   1.00
H62    H     0.05426   0.79514   0.00072   0.00000  Uiso   1.00
H63    H     0.20485   0.71832   0.00142   0.00000  Uiso   1.00
O31    O     0.18858   0.68281   0.00158   0.00000  Uiso   1.00
O32    O     0.14749   0.68283   0.00160   0.00000  Uiso   1.00
H64    H     0.13124   0.71835   0.00148   0.00000  Uiso   1.00
Ni4    Ni    0.16806   0.83193   0.00097   0.00000  Uiso   1.00
C193   C     0.16782   0.57730   0.06400   0.00000  Uiso   1.00
C194   C     0.16787   0.59535   0.03303   0.00000  Uiso   1.00
C195   C     0.16787   0.59535   0.97015   0.00000  Uiso   1.00
C196   C     0.16782   0.57730   0.93915   0.00000  Uiso   1.00
C197   C     0.16777   0.55988   0.97174   0.00000  Uiso   1.00
C198   C     0.16778   0.55988   0.03140   0.00000  Uiso   1.00
C199   C     0.16774   0.54038   0.04846   0.00000  Uiso   1.00
N33    N     0.16773   0.52797   0.00156   0.00000  Uiso   1.00
C200   C     0.16774   0.54038   0.95466   0.00000  Uiso   1.00
N34    N     0.16773   0.53467   0.89840   0.00000  Uiso   1.00
C201   C     0.16772   0.51576   0.88138   0.00000  Uiso   1.00
N35    N     0.16772   0.50000   0.91831   0.00000  Uiso   1.00
C202   C     0.16772   0.48423   0.88137   0.00000  Uiso   1.00
C203   C     0.16771   0.48997   0.82336   0.00000  Uiso   1.00
C204   C     0.16771   0.51003   0.82337   0.00000  Uiso   1.00
N36    N     0.16773   0.47202   0.00153   0.00000  Uiso   1.00
C205   C     0.16774   0.45961   0.95462   0.00000  Uiso   1.00
N37    N     0.16773   0.46532   0.89837   0.00000  Uiso   1.00
C206   C     0.16778   0.44011   0.97169   0.00000  Uiso   1.00
C207   C     0.16778   0.44011   0.03135   0.00000  Uiso   1.00
C208   C     0.16775   0.45961   0.04842   0.00000  Uiso   1.00
C209   C     0.16772   0.52099   0.77155   0.00000  Uiso   1.00
C210   C     0.16772   0.51058   0.71787   0.00000  Uiso   1.00
C211   C     0.16772   0.48941   0.71786   0.00000  Uiso   1.00
C212   C     0.16772   0.47900   0.77153   0.00000  Uiso   1.00
C213   C     0.16783   0.42269   0.06394   0.00000  Uiso   1.00
C214   C     0.16788   0.40464   0.03295   0.00000  Uiso   1.00
C215   C     0.16787   0.40464   0.97007   0.00000  Uiso   1.00
C216   C     0.16782   0.42268   0.93909   0.00000  Uiso   1.00
N38    N     0.16772   0.50000   0.08477   0.00000  Uiso   1.00
C217   C     0.16772   0.48423   0.12170   0.00000  Uiso   1.00
N39    N     0.16774   0.46532   0.10469   0.00000  Uiso   1.00
C218   C     0.16772   0.48997   0.17971   0.00000  Uiso   1.00
C219   C     0.16772   0.51003   0.17972   0.00000  Uiso   1.00
C220   C     0.16772   0.51576   0.12172   0.00000  Uiso   1.00
C221   C     0.16772   0.52099   0.23156   0.00000  Uiso   1.00
C222   C     0.16773   0.51058   0.28522   0.00000  Uiso   1.00
C223   C     0.16773   0.48941   0.28521   0.00000  Uiso   1.00
C224   C     0.16773   0.47900   0.23154   0.00000  Uiso   1.00
N40    N     0.16774   0.53467   0.10472   0.00000  Uiso   1.00
H65    H     0.16783   0.57687   0.11158   0.00000  Uiso   1.00
H66    H     0.16782   0.57687   0.89158   0.00000  Uiso   1.00
H67    H     0.16772   0.53698   0.77284   0.00000  Uiso   1.00
H68    H     0.16772   0.46301   0.77280   0.00000  Uiso   1.00
H69    H     0.16784   0.42312   0.11151   0.00000  Uiso   1.00
H70    H     0.16782   0.42312   0.89152   0.00000  Uiso   1.00
H71    H     0.16772   0.53698   0.23028   0.00000  Uiso   1.00
H72    H     0.16773   0.46301   0.23024   0.00000  Uiso   1.00
C225   C     0.16773   0.52080   0.33894   0.00000  Uiso   1.00
C226   C     0.16773   0.51014   0.39143   0.00000  Uiso   1.00
C227   C     0.16773   0.48985   0.39142   0.00000  Uiso   1.00
C228   C     0.16773   0.47919   0.33892   0.00000  Uiso   1.00
C229   C     0.16793   0.61335   0.06351   0.00000  Uiso   1.00
C230   C     0.16797   0.63117   0.03261   0.00000  Uiso   1.00
C231   C     0.16797   0.63116   0.97059   0.00000  Uiso   1.00
C232   C     0.16792   0.61335   0.93967   0.00000  Uiso   1.00
C233   C     0.16772   0.52080   0.66417   0.00000  Uiso   1.00
C234   C     0.16773   0.51014   0.61166   0.00000  Uiso   1.00
C235   C     0.16773   0.48985   0.61165   0.00000  Uiso   1.00
C236   C     0.16772   0.47919   0.66415   0.00000  Uiso   1.00
C237   C     0.16794   0.38664   0.06343   0.00000  Uiso   1.00
C238   C     0.16798   0.36883   0.03252   0.00000  Uiso   1.00
C239   C     0.16797   0.36882   0.97050   0.00000  Uiso   1.00
C240   C     0.16792   0.38664   0.93959   0.00000  Uiso   1.00
H73    H     0.16773   0.53679   0.34012   0.00000  Uiso   1.00
O33    O     0.16773   0.51912   0.44590   0.00000  Uiso   1.00
O34    O     0.16773   0.48087   0.44589   0.00000  Uiso   1.00
H74    H     0.16773   0.46320   0.34009   0.00000  Uiso   1.00
H75    H     0.16793   0.61360   0.11110   0.00000  Uiso   1.00
O35    O     0.16801   0.64911   0.06273   0.00000  Uiso   1.00
O36    O     0.16800   0.64910   0.94047   0.00000  Uiso   1.00
H76    H     0.16791   0.61359   0.89208   0.00000  Uiso   1.00
H77    H     0.16772   0.53679   0.66300   0.00000  Uiso   1.00
O37    O     0.16773   0.51912   0.55720   0.00000  Uiso   1.00
O38    O     0.16773   0.48087   0.55718   0.00000  Uiso   1.00
H78    H     0.16772   0.46320   0.66297   0.00000  Uiso   1.00
H79    H     0.16794   0.38640   0.11102   0.00000  Uiso   1.00
O39    O     0.16802   0.35089   0.06264   0.00000  Uiso   1.00
O40    O     0.16800   0.35088   0.94038   0.00000  Uiso   1.00
H80    H     0.16791   0.38639   0.89200   0.00000  Uiso   1.00
Ni5    Ni    0.16772   0.49999   0.00154   0.00000  Uiso   1.00
C241   C     0.47900   0.16771   0.77156   0.00000  Uiso   1.00
C242   C     0.48941   0.16771   0.71790   0.00000  Uiso   1.00
C243   C     0.51059   0.16771   0.71790   0.00000  Uiso   1.00
C244   C     0.52100   0.16771   0.77158   0.00000  Uiso   1.00
C245   C     0.51003   0.16770   0.82340   0.00000  Uiso   1.00
C246   C     0.48997   0.16770   0.82340   0.00000  Uiso   1.00
C247   C     0.48424   0.16770   0.88140   0.00000  Uiso   1.00
N41    N     0.50000   0.16771   0.91835   0.00000  Uiso   1.00
C248   C     0.51577   0.16771   0.88142   0.00000  Uiso   1.00
N42    N     0.53468   0.16773   0.89843   0.00000  Uiso   1.00
C249   C     0.54039   0.16773   0.95469   0.00000  Uiso   1.00
N43    N     0.52797   0.16772   0.00159   0.00000  Uiso   1.00
C250   C     0.54039   0.16774   0.04849   0.00000  Uiso   1.00
C251   C     0.55989   0.16777   0.03143   0.00000  Uiso   1.00
C252   C     0.55989   0.16777   0.97177   0.00000  Uiso   1.00
N44    N     0.50000   0.16771   0.08480   0.00000  Uiso   1.00
C253   C     0.51577   0.16771   0.12175   0.00000  Uiso   1.00
N45    N     0.53468   0.16773   0.10475   0.00000  Uiso   1.00
C254   C     0.51003   0.16771   0.17976   0.00000  Uiso   1.00
C255   C     0.48997   0.16771   0.17975   0.00000  Uiso   1.00
C256   C     0.48424   0.16771   0.12174   0.00000  Uiso   1.00
C257   C     0.57731   0.16781   0.93919   0.00000  Uiso   1.00
C258   C     0.59536   0.16787   0.97018   0.00000  Uiso   1.00
C259   C     0.59536   0.16787   0.03306   0.00000  Uiso   1.00
C260   C     0.57731   0.16782   0.06404   0.00000  Uiso   1.00
C261   C     0.47900   0.16772   0.23157   0.00000  Uiso   1.00
C262   C     0.48941   0.16772   0.28525   0.00000  Uiso   1.00
C263   C     0.51059   0.16772   0.28526   0.00000  Uiso   1.00
C264   C     0.52100   0.16772   0.23159   0.00000  Uiso   1.00
N46    N     0.47203   0.16772   0.00156   0.00000  Uiso   1.00
C265   C     0.45961   0.16774   0.04846   0.00000  Uiso   1.00
N47    N     0.46533   0.16773   0.10472   0.00000  Uiso   1.00
C266   C     0.44012   0.16777   0.03138   0.00000  Uiso   1.00
C267   C     0.44012   0.16776   0.97172   0.00000  Uiso   1.00
C268   C     0.45961   0.16773   0.95466   0.00000  Uiso   1.00
C269   C     0.42269   0.16780   0.93912   0.00000  Uiso   1.00
C270   C     0.40464   0.16786   0.97010   0.00000  Uiso   1.00
C271   C     0.40465   0.16786   0.03298   0.00000  Uiso   1.00
C272   C     0.42269   0.16782   0.06397   0.00000  Uiso   1.00
N48    N     0.46533   0.16772   0.89840   0.00000  Uiso   1.00
H81    H     0.46301   0.16771   0.77284   0.00000  Uiso   1.00
H82    H     0.53699   0.16771   0.77287   0.00000  Uiso   1.00
H83    H     0.57688   0.16781   0.89161   0.00000  Uiso   1.00
H84    H     0.57688   0.16783   0.11161   0.00000  Uiso   1.00
H85    H     0.46301   0.16772   0.23028   0.00000  Uiso   1.00
H86    H     0.53699   0.16772   0.23031   0.00000  Uiso   1.00
H87    H     0.42312   0.16780   0.89155   0.00000  Uiso   1.00
H88    H     0.42313   0.16782   0.11155   0.00000  Uiso   1.00
C273   C     0.38664   0.16791   0.93962   0.00000  Uiso   1.00
C274   C     0.36883   0.16796   0.97053   0.00000  Uiso   1.00
C275   C     0.36883   0.16797   0.03255   0.00000  Uiso   1.00
C276   C     0.38665   0.16792   0.06346   0.00000  Uiso   1.00
C277   C     0.47920   0.16771   0.66418   0.00000  Uiso   1.00
C278   C     0.48986   0.16772   0.61169   0.00000  Uiso   1.00
C279   C     0.51015   0.16772   0.61170   0.00000  Uiso   1.00
C280   C     0.52080   0.16772   0.66420   0.00000  Uiso   1.00
C281   C     0.61335   0.16792   0.93971   0.00000  Uiso   1.00
C282   C     0.63117   0.16797   0.97062   0.00000  Uiso   1.00
C283   C     0.63117   0.16798   0.03264   0.00000  Uiso   1.00
C284   C     0.61336   0.16793   0.06354   0.00000  Uiso   1.00
C285   C     0.47920   0.16772   0.33895   0.00000  Uiso   1.00
C286   C     0.48986   0.16772   0.39146   0.00000  Uiso   1.00
C287   C     0.51015   0.16772   0.39147   0.00000  Uiso   1.00
C288   C     0.52080   0.16772   0.33897   0.00000  Uiso   1.00
H89    H     0.38640   0.16790   0.89203   0.00000  Uiso   1.00
O41    O     0.35089   0.16799   0.94042   0.00000  Uiso   1.00
O42    O     0.35089   0.16801   0.06267   0.00000  Uiso   1.00
H90    H     0.38641   0.16793   0.11105   0.00000  Uiso   1.00
H91    H     0.46321   0.16772   0.66300   0.00000  Uiso   1.00
O43    O     0.48088   0.16772   0.55722   0.00000  Uiso   1.00
O44    O     0.51912   0.16772   0.55723   0.00000  Uiso   1.00
H92    H     0.53679   0.16772   0.66303   0.00000  Uiso   1.00
H93    H     0.61360   0.16791   0.89212   0.00000  Uiso   1.00
O45    O     0.64911   0.16801   0.94050   0.00000  Uiso   1.00
O46    O     0.64911   0.16802   0.06276   0.00000  Uiso   1.00
H94    H     0.61360   0.16793   0.11113   0.00000  Uiso   1.00
H95    H     0.46321   0.16772   0.34012   0.00000  Uiso   1.00
O47    O     0.48088   0.16772   0.44592   0.00000  Uiso   1.00
O48    O     0.51912   0.16773   0.44594   0.00000  Uiso   1.00
H96    H     0.53679   0.16773   0.34015   0.00000  Uiso   1.00
Ni6    Ni    0.50000   0.16771   0.00158   0.00000  Uiso   1.00
C289   C     0.83218   0.42270   0.93813   0.00000  Uiso   1.00
C290   C     0.83213   0.40465   0.96910   0.00000  Uiso   1.00
C291   C     0.83214   0.40465   0.03198   0.00000  Uiso   1.00
C292   C     0.83219   0.42269   0.06297   0.00000  Uiso   1.00
C293   C     0.83223   0.44012   0.03039   0.00000  Uiso   1.00
C294   C     0.83223   0.44012   0.97073   0.00000  Uiso   1.00
C295   C     0.83226   0.45962   0.95367   0.00000  Uiso   1.00
N49    N     0.83228   0.47203   0.00058   0.00000  Uiso   1.00
C296   C     0.83226   0.45961   0.04748   0.00000  Uiso   1.00
N50    N     0.83227   0.46533   0.10374   0.00000  Uiso   1.00
C297   C     0.83229   0.48424   0.12076   0.00000  Uiso   1.00
N51    N     0.83229   0.50000   0.08383   0.00000  Uiso   1.00
C298   C     0.83229   0.51577   0.12077   0.00000  Uiso   1.00
C299   C     0.83229   0.51003   0.17878   0.00000  Uiso   1.00
C300   C     0.83229   0.48997   0.17877   0.00000  Uiso   1.00
N52    N     0.83227   0.52798   0.00061   0.00000  Uiso   1.00
C301   C     0.83226   0.54039   0.04752   0.00000  Uiso   1.00
N53    N     0.83227   0.53468   0.10378   0.00000  Uiso   1.00
C302   C     0.83223   0.55989   0.03046   0.00000  Uiso   1.00
C303   C     0.83222   0.55989   0.97080   0.00000  Uiso   1.00
C304   C     0.83225   0.54039   0.95372   0.00000  Uiso   1.00
C305   C     0.83229   0.47900   0.23059   0.00000  Uiso   1.00
C306   C     0.83228   0.48941   0.28427   0.00000  Uiso   1.00
C307   C     0.83228   0.51059   0.28428   0.00000  Uiso   1.00
C308   C     0.83229   0.52100   0.23061   0.00000  Uiso   1.00
C309   C     0.83217   0.57731   0.93822   0.00000  Uiso   1.00
C310   C     0.83212   0.59536   0.96921   0.00000  Uiso   1.00
C311   C     0.83213   0.59536   0.03209   0.00000  Uiso   1.00
C312   C     0.83219   0.57731   0.06307   0.00000  Uiso   1.00
N54    N     0.83228   0.50001   0.91737   0.00000  Uiso   1.00
C313   C     0.83227   0.51577   0.88044   0.00000  Uiso   1.00
N55    N     0.83225   0.53468   0.89746   0.00000  Uiso   1.00
C314   C     0.83227   0.51004   0.82243   0.00000  Uiso   1.00
C315   C     0.83228   0.48998   0.82242   0.00000  Uiso   1.00
C316   C     0.83228   0.48424   0.88042   0.00000  Uiso   1.00
C317   C     0.83227   0.47901   0.77058   0.00000  Uiso   1.00
C318   C     0.83227   0.48942   0.71692   0.00000  Uiso   1.00
C319   C     0.83226   0.51059   0.71693   0.00000  Uiso   1.00
C320   C     0.83227   0.52100   0.77060   0.00000  Uiso   1.00
N56    N     0.83226   0.46533   0.89742   0.00000  Uiso   1.00
H97    H     0.83217   0.42313   0.89055   0.00000  Uiso   1.00
H98    H     0.83219   0.42313   0.11055   0.00000  Uiso   1.00
H99    H     0.83229   0.46301   0.22930   0.00000  Uiso   1.00
H100   H     0.83229   0.53699   0.22933   0.00000  Uiso   1.00
H101   H     0.83216   0.57688   0.89064   0.00000  Uiso   1.00
H102   H     0.83219   0.57688   0.11064   0.00000  Uiso   1.00
H103   H     0.83227   0.46302   0.77186   0.00000  Uiso   1.00
H104   H     0.83227   0.53699   0.77189   0.00000  Uiso   1.00
C321   C     0.83226   0.47920   0.66320   0.00000  Uiso   1.00
C322   C     0.83226   0.48986   0.61071   0.00000  Uiso   1.00
C323   C     0.83226   0.51015   0.61072   0.00000  Uiso   1.00
C324   C     0.83226   0.52081   0.66322   0.00000  Uiso   1.00
C325   C     0.83208   0.38665   0.93861   0.00000  Uiso   1.00
C326   C     0.83203   0.36883   0.96950   0.00000  Uiso   1.00
C327   C     0.83204   0.36883   0.03153   0.00000  Uiso   1.00
C328   C     0.83209   0.38665   0.06244   0.00000  Uiso   1.00
C329   C     0.83228   0.47920   0.33797   0.00000  Uiso   1.00
C330   C     0.83227   0.48986   0.39048   0.00000  Uiso   1.00
C331   C     0.83227   0.51015   0.39049   0.00000  Uiso   1.00
C332   C     0.83228   0.52081   0.33799   0.00000  Uiso   1.00
C333   C     0.83207   0.61336   0.93874   0.00000  Uiso   1.00
C334   C     0.83202   0.63117   0.96966   0.00000  Uiso   1.00
C335   C     0.83204   0.63117   0.03168   0.00000  Uiso   1.00
C336   C     0.83209   0.61336   0.06258   0.00000  Uiso   1.00
H105   H     0.83226   0.46321   0.66202   0.00000  Uiso   1.00
O49    O     0.83226   0.48088   0.55624   0.00000  Uiso   1.00
O50    O     0.83226   0.51913   0.55625   0.00000  Uiso   1.00
H106   H     0.83226   0.53680   0.66205   0.00000  Uiso   1.00
H107   H     0.83207   0.38641   0.89102   0.00000  Uiso   1.00
O51    O     0.83199   0.35089   0.93938   0.00000  Uiso   1.00
O52    O     0.83200   0.35089   0.06163   0.00000  Uiso   1.00
H108   H     0.83209   0.38640   0.11003   0.00000  Uiso   1.00
H109   H     0.83228   0.46321   0.33914   0.00000  Uiso   1.00
O53    O     0.83226   0.48088   0.44494   0.00000  Uiso   1.00
O54    O     0.83226   0.51913   0.44496   0.00000  Uiso   1.00
H110   H     0.83228   0.53679   0.33917   0.00000  Uiso   1.00
H111   H     0.83206   0.61360   0.89115   0.00000  Uiso   1.00
O55    O     0.83198   0.64911   0.93955   0.00000  Uiso   1.00
O56    O     0.83200   0.64912   0.06180   0.00000  Uiso   1.00
H112   H     0.83210   0.61360   0.11017   0.00000  Uiso   1.00
Ni7    Ni    0.83228   0.50000   0.00060   0.00000  Uiso   1.00
C337   C     0.52100   0.83230   0.23058   0.00000  Uiso   1.00
C338   C     0.51059   0.83229   0.28425   0.00000  Uiso   1.00
C339   C     0.48941   0.83229   0.28424   0.00000  Uiso   1.00
C340   C     0.47900   0.83230   0.23056   0.00000  Uiso   1.00
C341   C     0.48997   0.83230   0.17874   0.00000  Uiso   1.00
C342   C     0.51003   0.83230   0.17875   0.00000  Uiso   1.00
C343   C     0.51576   0.83230   0.12074   0.00000  Uiso   1.00
N57    N     0.50000   0.83230   0.08380   0.00000  Uiso   1.00
C344   C     0.48423   0.83230   0.12073   0.00000  Uiso   1.00
N58    N     0.46532   0.83228   0.10371   0.00000  Uiso   1.00
C345   C     0.45961   0.83227   0.04745   0.00000  Uiso   1.00
N59    N     0.47203   0.83228   0.00055   0.00000  Uiso   1.00
C346   C     0.45961   0.83226   0.95364   0.00000  Uiso   1.00
C347   C     0.44011   0.83223   0.97070   0.00000  Uiso   1.00
C348   C     0.44011   0.83223   0.03036   0.00000  Uiso   1.00
N60    N     0.50000   0.83228   0.91734   0.00000  Uiso   1.00
C349   C     0.48424   0.83228   0.88039   0.00000  Uiso   1.00
N61    N     0.46533   0.83227   0.89739   0.00000  Uiso   1.00
C350   C     0.48997   0.83228   0.82239   0.00000  Uiso   1.00
C351   C     0.51003   0.83228   0.82240   0.00000  Uiso   1.00
C352   C     0.51576   0.83228   0.88041   0.00000  Uiso   1.00
C353   C     0.42269   0.83219   0.06295   0.00000  Uiso   1.00
C354   C     0.40464   0.83214   0.03195   0.00000  Uiso   1.00
C355   C     0.40464   0.83213   0.96907   0.00000  Uiso   1.00
C356   C     0.42269   0.83218   0.93810   0.00000  Uiso   1.00
C357   C     0.52100   0.83228   0.77057   0.00000  Uiso   1.00
C358   C     0.51059   0.83227   0.71690   0.00000  Uiso   1.00
C359   C     0.48941   0.83227   0.71689   0.00000  Uiso   1.00
C360   C     0.47900   0.83228   0.77056   0.00000  Uiso   1.00
N62    N     0.52797   0.83228   0.00058   0.00000  Uiso   1.00
C361   C     0.54039   0.83226   0.95369   0.00000  Uiso   1.00
N63    N     0.53467   0.83226   0.89743   0.00000  Uiso   1.00
C362   C     0.55988   0.83223   0.97077   0.00000  Uiso   1.00
C363   C     0.55988   0.83224   0.03043   0.00000  Uiso   1.00
C364   C     0.54039   0.83227   0.04749   0.00000  Uiso   1.00
C365   C     0.57731   0.83220   0.06304   0.00000  Uiso   1.00
C366   C     0.59535   0.83215   0.03206   0.00000  Uiso   1.00
C367   C     0.59536   0.83214   0.96918   0.00000  Uiso   1.00
C368   C     0.57731   0.83218   0.93819   0.00000  Uiso   1.00
N64    N     0.53467   0.83228   0.10375   0.00000  Uiso   1.00
H113   H     0.53699   0.83230   0.22930   0.00000  Uiso   1.00
H114   H     0.46301   0.83229   0.22927   0.00000  Uiso   1.00
H115   H     0.42312   0.83219   0.11052   0.00000  Uiso   1.00
H116   H     0.42313   0.83217   0.89052   0.00000  Uiso   1.00
H117   H     0.53699   0.83228   0.77186   0.00000  Uiso   1.00
H118   H     0.46301   0.83228   0.77183   0.00000  Uiso   1.00
H119   H     0.57687   0.83220   0.11061   0.00000  Uiso   1.00
H120   H     0.57688   0.83217   0.89061   0.00000  Uiso   1.00
C369   C     0.61335   0.83210   0.06255   0.00000  Uiso   1.00
C370   C     0.63117   0.83205   0.03165   0.00000  Uiso   1.00
C371   C     0.63117   0.83204   0.96963   0.00000  Uiso   1.00
C372   C     0.61335   0.83208   0.93871   0.00000  Uiso   1.00
C373   C     0.52080   0.83229   0.33796   0.00000  Uiso   1.00
C374   C     0.51014   0.83228   0.39046   0.00000  Uiso   1.00
C375   C     0.48985   0.83228   0.39045   0.00000  Uiso   1.00
C376   C     0.47919   0.83228   0.33795   0.00000  Uiso   1.00
C377   C     0.38664   0.83209   0.06242   0.00000  Uiso   1.00
C378   C     0.36883   0.83203   0.03150   0.00000  Uiso   1.00
C379   C     0.36883   0.83203   0.96948   0.00000  Uiso   1.00
C380   C     0.38664   0.83207   0.93858   0.00000  Uiso   1.00
C381   C     0.52080   0.83227   0.66319   0.00000  Uiso   1.00
C382   C     0.51014   0.83227   0.61069   0.00000  Uiso   1.00
C383   C     0.48986   0.83227   0.61068   0.00000  Uiso   1.00
C384   C     0.47920   0.83227   0.66317   0.00000  Uiso   1.00
H121   H     0.61360   0.83211   0.11014   0.00000  Uiso   1.00
O57    O     0.64911   0.83202   0.06177   0.00000  Uiso   1.00
O58    O     0.64911   0.83199   0.93952   0.00000  Uiso   1.00
H122   H     0.61360   0.83207   0.89112   0.00000  Uiso   1.00
H123   H     0.53679   0.83229   0.33914   0.00000  Uiso   1.00
O59    O     0.51912   0.83227   0.44493   0.00000  Uiso   1.00
O60    O     0.48088   0.83227   0.44491   0.00000  Uiso   1.00
H124   H     0.46320   0.83228   0.33911   0.00000  Uiso   1.00
H125   H     0.38640   0.83209   0.11001   0.00000  Uiso   1.00
O61    O     0.35089   0.83200   0.06161   0.00000  Uiso   1.00
O62    O     0.35089   0.83198   0.93935   0.00000  Uiso   1.00
H126   H     0.38640   0.83207   0.89099   0.00000  Uiso   1.00
H127   H     0.53679   0.83227   0.66202   0.00000  Uiso   1.00
O63    O     0.51912   0.83226   0.55622   0.00000  Uiso   1.00
O64    O     0.48088   0.83226   0.55621   0.00000  Uiso   1.00
H128   H     0.46321   0.83227   0.66199   0.00000  Uiso   1.00
Ni8    Ni    0.50000   0.83229   0.00057   0.00000  Uiso   1.00
Cu1    Cu    0.16807   1.00000   0.00172   0.00000  Uiso   1.00
Cu2    Cu    0.00000   0.16807   0.00172   0.00000  Uiso   1.00
Cu3    Cu    0.83193   1.00000   0.00029   0.00000  Uiso   1.00
Cu4    Cu    1.00000   0.83193   0.00029   0.00000  Uiso   1.00
Zn1    Zn    0.16803   0.33403   0.00151   0.00000  Uiso   1.00
Zn2    Zn    0.66597   0.16803   0.00163   0.00000  Uiso   1.00
Zn3    Zn    0.83197   0.66597   0.00068   0.00000  Uiso   1.00
Zn4    Zn    0.33403   0.83197   0.00047   0.00000  Uiso   1.00
Zn5    Zn    0.16802   0.66596   0.00160   0.00000  Uiso   1.00
Zn6    Zn    0.33403   0.16802   0.00155   0.00000  Uiso   1.00
Zn7    Zn    0.83198   0.33403   0.00050   0.00000  Uiso   1.00
Zn8    Zn    0.66597   0.83199   0.00065   0.00000  Uiso   1.00
Cu5    Cu    0.16773   0.50000   0.50154   0.00000  Uiso   1.00
Cu6    Cu    0.50000   0.16772   0.50158   0.00000  Uiso   1.00
Cu7    Cu    0.83226   0.50000   0.50060   0.00000  Uiso   1.00
Cu8    Cu    0.50000   0.83226   0.50057   0.00000  Uiso   1.00
loop_
_geom_bond_atom_site_label_1
_geom_bond_atom_site_label_2
_geom_bond_distance
_geom_bond_site_symmetry_2
_ccdc_geom_bond_type
C1     C2      1.411   .     A
C1     C6      1.394   .     A
C1     H1      1.084   .     S
C2     C3      1.435   .     A
C2     C37     1.405   .     A
C3     C4      1.411   .     A
C3     C40     1.405   .     A
C4     C5      1.394   .     A
C4     H2      1.084   .     S
C5     C6      1.359   .     A
C5     C8      1.377   .     A
C6     C7      1.377   .     A
C7     N1      1.359   .     A
C7     N8      1.338   .     A
N1     C8      1.359   .     A
N1     Ni1     1.895   .     S
C8     N2      1.338   .     A
N2     C9      1.338   .     A
C9     N3      1.359   .     A
C9     C12     1.377   .     A
N3     C10     1.359   .     A
N3     Ni1     1.895   .     S
C10    C11     1.377   .     A
C10    N5      1.338   .     A
C11    C12     1.359   .     A
C11    C20     1.394   .     A
C12    C17     1.394   .     A
N4     C13     1.359   .     A
N4     C16     1.359   .     A
N4     Ni1     1.895   .     S
C13    N5      1.338   .     A
C13    C14     1.377   .     A
C14    C15     1.358   .     A
C14    C24     1.394   .     A
C15    C16     1.377   .     A
C15    C21     1.394   .     A
C16    N7      1.338   .     A
C17    C18     1.411   .     A
C17    H3      1.084   .     S
C18    C19     1.435   .     A
C18    C41     1.405   .     A
C19    C20     1.411   .     A
C19    C44     1.405   .     A
C20    H4      1.084   .     S
C21    C22     1.412   .     A
C21    H5      1.084   .     S
C22    C23     1.432   .     A
C22    C45     1.403   .     A
C23    C24     1.411   .     A
C23    C48     1.403   .     A
C24    H6      1.084   .     S
N6     C25     1.359   .     A
N6     C28     1.359   .     A
N6     Ni1     1.895   .     S
C25    N7      1.338   .     A
C25    C26     1.377   .     A
C26    C27     1.358   .     A
C26    C32     1.394   .     A
C27    C28     1.377   .     A
C27    C29     1.394   .     A
C28    N8      1.338   .     A
C29    C30     1.411   .     A
C29    H7      1.084   .     S
C30    C31     1.432   .     A
C30    C33     1.403   .     A
C31    C32     1.412   .     A
C31    C36     1.403   .     A
C32    H8      1.084   .     S
C33    C34     1.397   .     A
C33    H9      1.084   .     S
C34    C35     1.412   .     A
C34    O1      1.395   .     S
C35    C36     1.397   .     A
C35    O2      1.395   .     S
C36    H10     1.084   .     S
C37    C38     1.397   .     A
C37    H11     1.083   .     S
C38    C39     1.374   .     A
C38    O3      1.381   .     S
C39    C40     1.396   .     A
C39    O4      1.381   .     S
C40    H12     1.083   .     S
C41    C42     1.396   .     A
C41    H13     1.083   .     S
C42    C43     1.374   .     A
C42    O5      1.381   .     S
C43    C44     1.397   .     A
C43    O6      1.381   .     S
C44    H14     1.083   .     S
C45    C46     1.397   .     A
C45    H15     1.084   .     S
C46    C47     1.412   .     A
C46    O7      1.395   .     S
C47    C48     1.397   .     A
C47    O8      1.395   .     S
C48    H16     1.084   .     S
O1     Zn6     1.800   .     S
O2     Zn6     1.800   .     S
O3     Cu1     1.812   1_545 S
O4     Cu1     1.812   1_545 S
O5     Cu2     1.812   .     S
O6     Cu2     1.812   .     S
O7     Zn1     1.800   .     S
O8     Zn1     1.800   .     S
C49    C50     1.411   .     A
C49    C54     1.394   .     A
C49    H17     1.084   .     S
C50    C51     1.435   .     A
C50    C85     1.405   .     A
C51    C52     1.411   .     A
C51    C88     1.405   .     A
C52    C53     1.394   .     A
C52    H18     1.084   .     S
C53    C54     1.359   .     A
C53    C56     1.377   .     A
C54    C55     1.377   .     A
C55    N9      1.359   .     A
C55    N16     1.338   .     A
N9     C56     1.359   .     A
N9     Ni2     1.895   .     S
C56    N10     1.338   .     A
N10    C57     1.338   .     A
C57    N11     1.359   .     A
C57    C60     1.377   .     A
N11    C58     1.359   .     A
N11    Ni2     1.895   .     S
C58    C59     1.377   .     A
C58    N13     1.338   .     A
C59    C60     1.359   .     A
C59    C68     1.394   .     A
C60    C65     1.394   .     A
N12    C61     1.359   .     A
N12    C64     1.359   .     A
N12    Ni2     1.895   .     S
C61    N13     1.338   .     A
C61    C62     1.377   .     A
C62    C63     1.358   .     A
C62    C72     1.394   .     A
C63    C64     1.377   .     A
C63    C69     1.394   .     A
C64    N15     1.338   .     A
C65    C66     1.411   .     A
C65    H19     1.084   .     S
C66    C67     1.435   .     A
C66    C89     1.405   .     A
C67    C68     1.411   .     A
C67    C92     1.405   .     A
C68    H20     1.084   .     S
C69    C70     1.412   .     A
C69    H21     1.084   .     S
C70    C71     1.432   .     A
C70    C93     1.403   .     A
C71    C72     1.411   .     A
C71    C96     1.403   .     A
C72    H22     1.084   .     S
N14    C73     1.359   .     A
N14    C76     1.359   .     A
N14    Ni2     1.895   .     S
C73    N15     1.338   .     A
C73    C74     1.377   .     A
C74    C75     1.358   .     A
C74    C80     1.394   .     A
C75    C76     1.377   .     A
C75    C77     1.394   .     A
C76    N16     1.338   .     A
C77    C78     1.411   .     A
C77    H23     1.084   .     S
C78    C79     1.432   .     A
C78    C81     1.403   .     A
C79    C80     1.412   .     A
C79    C84     1.403   .     A
C80    H24     1.084   .     S
C81    C82     1.397   .     A
C81    H25     1.084   .     S
C82    C83     1.412   .     A
C82    O9      1.395   .     S
C83    C84     1.397   .     A
C83    O10     1.395   .     S
C84    H26     1.084   .     S
C85    C86     1.396   .     A
C85    H27     1.083   .     S
C86    C87     1.374   .     A
C86    O11     1.381   .     S
C87    C88     1.396   .     A
C87    O12     1.381   .     S
C88    H28     1.083   .     S
C89    C90     1.396   .     A
C89    H29     1.083   .     S
C90    C91     1.374   .     A
C90    O13     1.381   .     S
C91    C92     1.397   .     A
C91    O14     1.381   .     S
C92    H30     1.083   .     S
C93    C94     1.397   .     A
C93    H31     1.084   .     S
C94    C95     1.412   .     A
C94    O15     1.395   .     S
C95    C96     1.397   .     A
C95    O16     1.395   .     S
C96    H32     1.084   .     S
O9     Zn2     1.800   .     S
O10    Zn2     1.800   .     S
O11    Cu3     1.812   1_545 S
O12    Cu3     1.812   1_545 S
O13    Cu2     1.812   1_655 S
O14    Cu2     1.812   1_655 S
O15    Zn7     1.800   .     S
O16    Zn7     1.800   .     S
C97    C98     1.411   .     A
C97    C102    1.394   .     A
C97    H33     1.084   .     S
C98    C99     1.435   .     A
C98    C133    1.405   .     A
C99    C100    1.411   .     A
C99    C136    1.405   .     A
C100   C101    1.394   .     A
C100   H34     1.084   .     S
C101   C102    1.359   .     A
C101   C104    1.377   .     A
C102   C103    1.377   .     A
C103   N17     1.359   .     A
C103   N24     1.338   .     A
N17    C104    1.359   .     A
N17    Ni3     1.895   .     S
C104   N18     1.338   .     A
N18    C105    1.338   .     A
C105   N19     1.359   .     A
C105   C108    1.377   .     A
N19    C106    1.359   .     A
N19    Ni3     1.895   .     S
C106   C107    1.377   .     A
C106   N21     1.338   .     A
C107   C108    1.359   .     A
C107   C116    1.394   .     A
C108   C113    1.394   .     A
N20    C109    1.359   .     A
N20    C112    1.359   .     A
N20    Ni3     1.895   .     S
C109   N21     1.338   .     A
C109   C110    1.377   .     A
C110   C111    1.358   .     A
C110   C120    1.394   .     A
C111   C112    1.377   .     A
C111   C117    1.394   .     A
C112   N23     1.338   .     A
C113   C114    1.411   .     A
C113   H35     1.084   .     S
C114   C115    1.435   .     A
C114   C137    1.405   .     A
C115   C116    1.411   .     A
C115   C140    1.405   .     A
C116   H36     1.084   .     S
C117   C118    1.412   .     A
C117   H37     1.084   .     S
C118   C119    1.432   .     A
C118   C141    1.403   1_554 A
C119   C120    1.411   .     A
C119   C144    1.403   .     A
C120   H38     1.084   .     S
N22    C121    1.359   .     A
N22    C124    1.359   .     A
N22    Ni3     1.895   .     S
C121   N23     1.338   .     A
C121   C122    1.377   .     A
C122   C123    1.358   .     A
C122   C128    1.394   .     A
C123   C124    1.377   .     A
C123   C125    1.394   .     A
C124   N24     1.338   .     A
C125   C126    1.411   .     A
C125   H39     1.084   .     S
C126   C127    1.432   .     A
C126   C129    1.403   .     A
C127   C128    1.412   .     A
C127   C132    1.403   1_554 A
C128   H40     1.084   .     S
C129   C130    1.397   .     A
C129   H41     1.084   .     S
C130   C131    1.412   1_554 A
C130   O17     1.395   .     S
C131   C130    1.412   1_556 A
C131   C132    1.397   .     A
C131   O18     1.395   .     S
C132   C127    1.403   1_556 A
C132   H42     1.084   .     S
C133   C134    1.396   .     A
C133   H43     1.083   .     S
C134   C135    1.374   .     A
C134   O19     1.381   .     S
C135   C136    1.396   .     A
C135   O20     1.381   .     S
C136   H44     1.083   .     S
C137   C138    1.396   .     A
C137   H45     1.083   .     S
C138   C139    1.374   .     A
C138   O21     1.381   .     S
C139   C140    1.397   .     A
C139   O22     1.381   .     S
C140   H46     1.083   .     S
C141   C118    1.403   1_556 A
C141   C142    1.397   .     A
C141   H47     1.084   .     S
C142   C143    1.412   1_556 A
C142   O23     1.395   .     S
C143   C142    1.412   1_554 A
C143   C144    1.397   .     A
C143   O24     1.395   1_554 S
C144   H48     1.084   .     S
O17    Zn8     1.800   .     S
O18    Zn8     1.800   1_556 S
O19    Cu3     1.812   .     S
O20    Cu3     1.812   .     S
O21    Cu4     1.812   .     S
O22    Cu4     1.812   .     S
O23    Zn3     1.800   1_556 S
O24    C143    1.395   1_556 S
O24    Zn3     1.800   1_556 S
C145   C146    1.411   .     A
C145   C150    1.394   .     A
C145   H49     1.084   .     S
C146   C147    1.435   .     A
C146   C181    1.405   .     A
C147   C148    1.411   .     A
C147   C184    1.405   .     A
C148   C149    1.394   .     A
C148   H50     1.084   .     S
C149   C150    1.359   .     A
C149   C152    1.377   .     A
C150   C151    1.377   .     A
C151   N25     1.359   .     A
C151   N32     1.338   .     A
N25    C152    1.359   .     A
N25    Ni4     1.895   .     S
C152   N26     1.338   .     A
N26    C153    1.338   .     A
C153   N27     1.359   .     A
C153   C156    1.377   .     A
N27    C154    1.359   .     A
N27    Ni4     1.895   .     S
C154   C155    1.377   .     A
C154   N29     1.338   .     A
C155   C156    1.359   .     A
C155   C164    1.394   .     A
C156   C161    1.394   .     A
N28    C157    1.359   .     A
N28    C160    1.359   .     A
N28    Ni4     1.895   .     S
C157   N29     1.338   .     A
C157   C158    1.377   .     A
C158   C159    1.358   .     A
C158   C168    1.394   .     A
C159   C160    1.377   .     A
C159   C165    1.394   .     A
C160   N31     1.338   .     A
C161   C162    1.411   .     A
C161   H51     1.084   .     S
C162   C163    1.435   .     A
C162   C185    1.405   .     A
C163   C164    1.411   .     A
C163   C188    1.405   .     A
C164   H52     1.084   .     S
C165   C166    1.412   .     A
C165   H53     1.084   .     S
C166   C167    1.432   .     A
C166   C189    1.403   .     A
C167   C168    1.411   .     A
C167   C192    1.403   .     A
C168   H54     1.084   .     S
N30    C169    1.359   .     A
N30    C172    1.359   .     A
N30    Ni4     1.895   .     S
C169   N31     1.338   .     A
C169   C170    1.377   .     A
C170   C171    1.358   .     A
C170   C176    1.394   .     A
C171   C172    1.377   .     A
C171   C173    1.394   .     A
C172   N32     1.338   .     A
C173   C174    1.411   .     A
C173   H55     1.084   .     S
C174   C175    1.432   .     A
C174   C177    1.403   .     A
C175   C176    1.412   .     A
C175   C180    1.403   .     A
C176   H56     1.084   .     S
C177   C178    1.397   .     A
C177   H57     1.084   .     S
C178   C179    1.412   .     A
C178   O25     1.395   .     S
C179   C180    1.397   .     A
C179   O26     1.395   .     S
C180   H58     1.084   .     S
C181   C182    1.396   .     A
C181   H59     1.083   .     S
C182   C183    1.374   .     A
C182   O27     1.381   .     S
C183   C184    1.396   .     A
C183   O28     1.381   .     S
C184   H60     1.083   .     S
C185   C186    1.396   .     A
C185   H61     1.083   .     S
C186   C187    1.374   .     A
C186   O29     1.381   .     S
C187   C188    1.397   .     A
C187   O30     1.381   .     S
C188   H62     1.083   .     S
C189   C190    1.397   .     A
C189   H63     1.084   .     S
C190   C191    1.412   .     A
C190   O31     1.395   .     S
C191   C192    1.397   .     A
C191   O32     1.395   .     S
C192   H64     1.084   .     S
O25    Zn4     1.800   .     S
O26    Zn4     1.800   .     S
O27    Cu1     1.812   .     S
O28    Cu1     1.812   .     S
O29    Cu4     1.812   1_455 S
O30    Cu4     1.812   1_455 S
O31    Zn5     1.800   .     S
O32    Zn5     1.800   .     S
C193   C194    1.412   .     A
C193   C198    1.394   .     A
C193   H65     1.084   .     S
C194   C195    1.432   1_554 A
C194   C229    1.403   .     A
C195   C194    1.432   1_556 A
C195   C196    1.411   .     A
C195   C232    1.403   .     A
C196   C197    1.394   .     A
C196   H66     1.084   .     S
C197   C198    1.358   1_556 A
C197   C200    1.377   .     A
C198   C197    1.358   1_554 A
C198   C199    1.377   .     A
C199   N33     1.359   .     A
C199   N40     1.338   .     A
N33    C200    1.359   1_554 A
N33    Ni5     1.895   .     S
C200   N33     1.359   1_556 A
C200   N34     1.338   .     A
N34    C201    1.338   .     A
C201   N35     1.359   .     A
C201   C204    1.377   .     A
N35    C202    1.359   .     A
N35    Ni5     1.895   1_556 S
C202   C203    1.377   .     A
C202   N37     1.338   .     A
C203   C204    1.359   .     A
C203   C212    1.394   .     A
C204   C209    1.394   .     A
N36    C205    1.359   1_554 A
N36    C208    1.359   .     A
N36    Ni5     1.895   .     S
C205   N36     1.359   1_556 A
C205   N37     1.338   .     A
C205   C206    1.377   .     A
C206   C207    1.358   1_556 A
C206   C216    1.394   .     A
C207   C206    1.358   1_554 A
C207   C208    1.377   .     A
C207   C213    1.394   .     A
C208   N39     1.338   .     A
C209   C210    1.411   .     A
C209   H67     1.084   .     S
C210   C211    1.435   .     A
C210   C233    1.405   .     A
C211   C212    1.411   .     A
C211   C236    1.405   .     A
C212   H68     1.084   .     S
C213   C214    1.411   .     A
C213   H69     1.084   .     S
C214   C215    1.432   1_554 A
C214   C237    1.403   .     A
C215   C214    1.432   1_556 A
C215   C216    1.412   .     A
C215   C240    1.403   .     A
C216   H70     1.084   .     S
N38    C217    1.359   .     A
N38    C220    1.359   .     A
N38    Ni5     1.895   .     S
C217   N39     1.338   .     A
C217   C218    1.377   .     A
C218   C219    1.359   .     A
C218   C224    1.394   .     A
C219   C220    1.377   .     A
C219   C221    1.394   .     A
C220   N40     1.338   .     A
C221   C222    1.411   .     A
C221   H71     1.084   .     S
C222   C223    1.435   .     A
C222   C225    1.405   .     A
C223   C224    1.411   .     A
C223   C228    1.405   .     A
C224   H72     1.084   .     S
C225   C226    1.396   .     A
C225   H73     1.083   .     S
C226   C227    1.374   .     A
C226   O33     1.381   .     S
C227   C228    1.396   .     A
C227   O34     1.381   .     S
C228   H74     1.083   .     S
C229   C230    1.397   .     A
C229   H75     1.084   .     S
C230   C231    1.412   1_554 A
C230   O35     1.395   .     S
C231   C230    1.412   1_556 A
C231   C232    1.397   .     A
C231   O36     1.395   .     S
C232   H76     1.084   .     S
C233   C234    1.396   .     A
C233   H77     1.083   .     S
C234   C235    1.374   .     A
C234   O37     1.381   .     S
C235   C236    1.396   .     A
C235   O38     1.381   .     S
C236   H78     1.083   .     S
C237   C238    1.397   .     A
C237   H79     1.084   .     S
C238   C239    1.412   1_554 A
C238   O39     1.395   .     S
C239   C238    1.412   1_556 A
C239   C240    1.397   .     A
C239   O40     1.395   .     S
C240   H80     1.084   .     S
O33    Cu5     1.812   .     S
O34    Cu5     1.812   .     S
O35    Zn5     1.800   .     S
O36    Zn5     1.800   1_556 S
O37    Cu5     1.812   .     S
O38    Cu5     1.812   .     S
O39    Zn1     1.800   .     S
O40    Zn1     1.800   1_556 S
Ni5    N35     1.895   1_554 S
C241   C242    1.411   .     A
C241   C246    1.394   .     A
C241   H81     1.084   .     S
C242   C243    1.435   .     A
C242   C277    1.405   .     A
C243   C244    1.411   .     A
C243   C280    1.405   .     A
C244   C245    1.394   .     A
C244   H82     1.084   .     S
C245   C246    1.359   .     A
C245   C248    1.377   .     A
C246   C247    1.377   .     A
C247   N41     1.359   .     A
C247   N48     1.338   .     A
N41    C248    1.359   .     A
N41    Ni6     1.895   1_556 S
C248   N42     1.338   .     A
N42    C249    1.338   .     A
C249   N43     1.359   1_556 A
C249   C252    1.377   .     A
N43    C249    1.359   1_554 A
N43    C250    1.359   .     A
N43    Ni6     1.895   .     S
C250   C251    1.377   .     A
C250   N45     1.338   .     A
C251   C252    1.358   1_554 A
C251   C260    1.394   .     A
C252   C251    1.358   1_556 A
C252   C257    1.394   .     A
N44    C253    1.359   .     A
N44    C256    1.359   .     A
N44    Ni6     1.895   .     S
C253   N45     1.338   .     A
C253   C254    1.377   .     A
C254   C255    1.359   .     A
C254   C264    1.394   .     A
C255   C256    1.377   .     A
C255   C261    1.394   .     A
C256   N47     1.338   .     A
C257   C258    1.411   .     A
C257   H83     1.084   .     S
C258   C259    1.432   1_556 A
C258   C281    1.403   .     A
C259   C258    1.432   1_554 A
C259   C260    1.412   .     A
C259   C284    1.403   .     A
C260   H84     1.084   .     S
C261   C262    1.411   .     A
C261   H85     1.084   .     S
C262   C263    1.435   .     A
C262   C285    1.405   .     A
C263   C264    1.411   .     A
C263   C288    1.405   .     A
C264   H86     1.084   .     S
N46    C265    1.359   .     A
N46    C268    1.359   1_554 A
N46    Ni6     1.895   .     S
C265   N47     1.338   .     A
C265   C266    1.377   .     A
C266   C267    1.358   1_554 A
C266   C272    1.394   .     A
C267   C266    1.358   1_556 A
C267   C268    1.377   .     A
C267   C269    1.394   .     A
C268   N46     1.359   1_556 A
C268   N48     1.338   .     A
C269   C270    1.412   .     A
C269   H87     1.084   .     S
C270   C271    1.432   1_556 A
C270   C273    1.403   .     A
C271   C270    1.432   1_554 A
C271   C272    1.411   .     A
C271   C276    1.403   .     A
C272   H88     1.084   .     S
C273   C274    1.397   .     A
C273   H89     1.084   .     S
C274   C275    1.412   1_556 A
C274   O41     1.395   .     S
C275   C274    1.412   1_554 A
C275   C276    1.397   .     A
C275   O42     1.395   .     S
C276   H90     1.084   .     S
C277   C278    1.396   .     A
C277   H91     1.083   .     S
C278   C279    1.374   .     A
C278   O43     1.381   .     S
C279   C280    1.396   .     A
C279   O44     1.381   .     S
C280   H92     1.083   .     S
C281   C282    1.397   .     A
C281   H93     1.084   .     S
C282   C283    1.412   1_556 A
C282   O45     1.395   .     S
C283   C282    1.412   1_554 A
C283   C284    1.397   .     A
C283   O46     1.395   .     S
C284   H94     1.084   .     S
C285   C286    1.396   .     A
C285   H95     1.083   .     S
C286   C287    1.374   .     A
C286   O47     1.381   .     S
C287   C288    1.396   .     A
C287   O48     1.381   .     S
C288   H96     1.083   .     S
O41    Zn6     1.800   1_556 S
O42    Zn6     1.800   .     S
O43    Cu6     1.812   .     S
O44    Cu6     1.812   .     S
O45    Zn2     1.800   1_556 S
O46    Zn2     1.800   .     S
O47    Cu6     1.812   .     S
O48    Cu6     1.812   .     S
Ni6    N41     1.895   1_554 S
C289   C290    1.411   .     A
C289   C294    1.394   .     A
C289   H97     1.084   .     S
C290   C291    1.432   1_556 A
C290   C325    1.403   .     A
C291   C290    1.432   1_554 A
C291   C292    1.411   .     A
C291   C328    1.403   .     A
C292   C293    1.394   .     A
C292   H98     1.084   .     S
C293   C294    1.358   1_554 A
C293   C296    1.377   .     A
C294   C293    1.358   1_556 A
C294   C295    1.377   .     A
C295   N49     1.359   1_556 A
C295   N56     1.338   .     A
N49    C295    1.359   1_554 A
N49    C296    1.359   .     A
N49    Ni7     1.895   .     S
C296   N50     1.338   .     A
N50    C297    1.338   .     A
C297   N51     1.359   .     A
C297   C300    1.377   .     A
N51    C298    1.359   .     A
N51    Ni7     1.895   .     S
C298   C299    1.377   .     A
C298   N53     1.338   .     A
C299   C300    1.359   .     A
C299   C308    1.394   .     A
C300   C305    1.394   .     A
N52    C301    1.359   .     A
N52    C304    1.359   1_554 A
N52    Ni7     1.895   .     S
C301   N53     1.338   .     A
C301   C302    1.377   .     A
C302   C303    1.358   1_554 A
C302   C312    1.394   .     A
C303   C302    1.358   1_556 A
C303   C304    1.377   .     A
C303   C309    1.394   .     A
C304   N52     1.359   1_556 A
C304   N55     1.338   .     A
C305   C306    1.411   .     A
C305   H99     1.084   .     S
C306   C307    1.435   .     A
C306   C329    1.405   .     A
C307   C308    1.411   .     A
C307   C332    1.405   .     A
C308   H100    1.084   .     S
C309   C310    1.411   .     A
C309   H101    1.084   .     S
C310   C311    1.432   1_556 A
C310   C333    1.403   .     A
C311   C310    1.432   1_554 A
C311   C312    1.411   .     A
C311   C336    1.403   .     A
C312   H102    1.084   .     S
N54    C313    1.359   .     A
N54    C316    1.359   .     A
N54    Ni7     1.895   1_556 S
C313   N55     1.338   .     A
C313   C314    1.377   .     A
C314   C315    1.359   .     A
C314   C320    1.394   .     A
C315   C316    1.377   .     A
C315   C317    1.394   .     A
C316   N56     1.338   .     A
C317   C318    1.411   .     A
C317   H103    1.084   .     S
C318   C319    1.435   .     A
C318   C321    1.405   .     A
C319   C320    1.411   .     A
C319   C324    1.405   .     A
C320   H104    1.084   .     S
C321   C322    1.396   .     A
C321   H105    1.083   .     S
C322   C323    1.374   .     A
C322   O49     1.381   .     S
C323   C324    1.396   .     A
C323   O50     1.381   .     S
C324   H106    1.083   .     S
C325   C326    1.397   .     A
C325   H107    1.084   .     S
C326   C327    1.412   1_556 A
C326   O51     1.395   .     S
C327   C326    1.412   1_554 A
C327   C328    1.397   .     A
C327   O52     1.395   .     S
C328   H108    1.084   .     S
C329   C330    1.396   .     A
C329   H109    1.083   .     S
C330   C331    1.374   .     A
C330   O53     1.381   .     S
C331   C332    1.396   .     A
C331   O54     1.381   .     S
C332   H110    1.083   .     S
C333   C334    1.397   .     A
C333   H111    1.084   .     S
C334   C335    1.412   1_556 A
C334   O55     1.395   .     S
C335   C334    1.412   1_554 A
C335   C336    1.397   .     A
C335   O56     1.395   .     S
C336   H112    1.084   .     S
O49    Cu7     1.812   .     S
O50    Cu7     1.812   .     S
O51    Zn7     1.800   1_556 S
O52    Zn7     1.800   .     S
O53    Cu7     1.812   .     S
O54    Cu7     1.812   .     S
O55    Zn3     1.800   1_556 S
O56    Zn3     1.800   .     S
Ni7    N54     1.895   1_554 S
C337   C338    1.411   .     A
C337   C342    1.394   .     A
C337   H113    1.084   .     S
C338   C339    1.435   .     A
C338   C373    1.405   .     A
C339   C340    1.411   .     A
C339   C376    1.405   .     A
C340   C341    1.394   .     A
C340   H114    1.084   .     S
C341   C342    1.359   .     A
C341   C344    1.377   .     A
C342   C343    1.377   .     A
C343   N57     1.359   .     A
C343   N64     1.338   .     A
N57    C344    1.359   .     A
N57    Ni8     1.895   .     S
C344   N58     1.338   .     A
N58    C345    1.338   .     A
C345   N59     1.359   .     A
C345   C348    1.377   .     A
N59    C346    1.359   1_554 A
N59    Ni8     1.895   .     S
C346   N59     1.359   1_556 A
C346   C347    1.377   .     A
C346   N61     1.338   .     A
C347   C348    1.358   1_556 A
C347   C356    1.394   .     A
C348   C347    1.358   1_554 A
C348   C353    1.394   .     A
N60    C349    1.359   .     A
N60    C352    1.359   .     A
N60    Ni8     1.895   1_556 S
C349   N61     1.338   .     A
C349   C350    1.377   .     A
C350   C351    1.359   .     A
C350   C360    1.394   .     A
C351   C352    1.377   .     A
C351   C357    1.394   .     A
C352   N63     1.338   .     A
C353   C354    1.411   .     A
C353   H115    1.084   .     S
C354   C355    1.432   1_554 A
C354   C377    1.403   .     A
C355   C354    1.432   1_556 A
C355   C356    1.411   .     A
C355   C380    1.403   .     A
C356   H116    1.084   .     S
C357   C358    1.411   .     A
C357   H117    1.084   .     S
C358   C359    1.435   .     A
C358   C381    1.405   .     A
C359   C360    1.411   .     A
C359   C384    1.405   .     A
C360   H118    1.084   .     S
N62    C361    1.359   1_554 A
N62    C364    1.359   .     A
N62    Ni8     1.895   .     S
C361   N62     1.359   1_556 A
C361   N63     1.338   .     A
C361   C362    1.377   .     A
C362   C363    1.358   1_556 A
C362   C368    1.394   .     A
C363   C362    1.358   1_554 A
C363   C364    1.377   .     A
C363   C365    1.394   .     A
C364   N64     1.338   .     A
C365   C366    1.411   .     A
C365   H119    1.084   .     S
C366   C367    1.432   1_554 A
C366   C369    1.403   .     A
C367   C366    1.432   1_556 A
C367   C368    1.411   .     A
C367   C372    1.403   .     A
C368   H120    1.084   .     S
C369   C370    1.397   .     A
C369   H121    1.084   .     S
C370   C371    1.412   1_554 A
C370   O57     1.395   .     S
C371   C370    1.412   1_556 A
C371   C372    1.397   .     A
C371   O58     1.395   .     S
C372   H122    1.084   .     S
C373   C374    1.396   .     A
C373   H123    1.083   .     S
C374   C375    1.374   .     A
C374   O59     1.381   .     S
C375   C376    1.396   .     A
C375   O60     1.381   .     S
C376   H124    1.083   .     S
C377   C378    1.397   .     A
C377   H125    1.084   .     S
C378   C379    1.412   1_554 A
C378   O61     1.395   .     S
C379   C378    1.412   1_556 A
C379   C380    1.397   .     A
C379   O62     1.395   .     S
C380   H126    1.084   .     S
C381   C382    1.396   .     A
C381   H127    1.083   .     S
C382   C383    1.374   .     A
C382   O63     1.381   .     S
C383   C384    1.396   .     A
C383   O64     1.381   .     S
C384   H128    1.083   .     S
O57    Zn8     1.800   .     S
O58    Zn8     1.800   1_556 S
O59    Cu8     1.812   .     S
O60    Cu8     1.812   .     S
O61    Zn4     1.800   .     S
O62    Zn4     1.800   1_556 S
O63    Cu8     1.812   .     S
O64    Cu8     1.812   .     S
Ni8    N60     1.895   1_554 S
Cu1    O4      1.812   1_565 S
Cu1    O3      1.812   1_565 S
Cu2    O14     1.812   1_455 S
Cu2    O13     1.812   1_455 S
Cu3    O11     1.812   1_565 S
Cu3    O12     1.812   1_565 S
Cu4    O29     1.812   1_655 S
Cu4    O30     1.812   1_655 S
Zn1    O40     1.800   1_554 S
Zn2    O45     1.800   1_554 S
Zn3    O23     1.800   1_554 S
Zn3    O24     1.800   1_554 S
Zn3    O55     1.800   1_554 S
Zn4    O62     1.800   1_554 S
Zn5    O36     1.800   1_554 S
Zn6    O41     1.800   1_554 S
Zn7    O51     1.800   1_554 S
Zn8    O58     1.800   1_554 S
Zn8    O18     1.800   1_554 S
