data_ssf-PcMN_O-Zntet
_audit_creation_date              2021-11-06
_audit_creation_method            'Materials Studio'
_symmetry_space_group_name_H-M    'P1'
_symmetry_Int_Tables_number       1
_symmetry_cell_setting            triclinic
loop_
_symmetry_equiv_pos_as_xyz
  x,y,z
_cell_length_a                    90.5102
_cell_length_b                    90.5102
_cell_length_c                    22.7688
_cell_angle_alpha                 89.9962
_cell_angle_beta                  89.9986
_cell_angle_gamma                 89.9996
loop_
_atom_site_label
_atom_site_type_symbol
_atom_site_fract_x
_atom_site_fract_y
_atom_site_fract_z
_atom_site_U_iso_or_equiv
_atom_site_adp_type
_atom_site_occupancy
C1     C     0.35850   0.43208   0.00151   0.00000  Uiso   1.00
C2     C     0.36629   0.44558   0.00150   0.00000  Uiso   1.00
C3     C     0.38214   0.44558   0.00146   0.00000  Uiso   1.00
C4     C     0.38993   0.43208   0.00143   0.00000  Uiso   1.00
C5     C     0.38172   0.41904   0.00145   0.00000  Uiso   1.00
C6     C     0.36671   0.41904   0.00148   0.00000  Uiso   1.00
C7     C     0.36242   0.40445   0.00151   0.00000  Uiso   1.00
N1     N     0.37422   0.39516   0.00149   0.00000  Uiso   1.00
C8     C     0.38602   0.40445   0.00145   0.00000  Uiso   1.00
N2     N     0.40017   0.40017   0.00143   0.00000  Uiso   1.00
C9     C     0.40445   0.38602   0.00145   0.00000  Uiso   1.00
N3     N     0.39516   0.37422   0.00148   0.00000  Uiso   1.00
C10    C     0.40445   0.36242   0.00150   0.00000  Uiso   1.00
C11    C     0.41904   0.36671   0.00148   0.00000  Uiso   1.00
C12    C     0.41904   0.38173   0.00144   0.00000  Uiso   1.00
N4     N     0.37422   0.35328   0.00157   0.00000  Uiso   1.00
C13    C     0.38602   0.34399   0.00157   0.00000  Uiso   1.00
N5     N     0.40017   0.34827   0.00154   0.00000  Uiso   1.00
C14    C     0.38172   0.32940   0.00160   0.00000  Uiso   1.00
C15    C     0.36672   0.32940   0.00163   0.00000  Uiso   1.00
C16    C     0.36242   0.34399   0.00160   0.00000  Uiso   1.00
C17    C     0.43208   0.38993   0.00143   0.00000  Uiso   1.00
C18    C     0.44558   0.38214   0.00146   0.00000  Uiso   1.00
C19    C     0.44558   0.36629   0.00150   0.00000  Uiso   1.00
C20    C     0.43208   0.35850   0.00150   0.00000  Uiso   1.00
C21    C     0.35852   0.31636   0.00166   0.00000  Uiso   1.00
C22    C     0.36631   0.30285   0.00168   0.00000  Uiso   1.00
C23    C     0.38213   0.30285   0.00166   0.00000  Uiso   1.00
C24    C     0.38993   0.31636   0.00162   0.00000  Uiso   1.00
N6     N     0.35328   0.37422   0.00157   0.00000  Uiso   1.00
C25    C     0.34399   0.36242   0.00161   0.00000  Uiso   1.00
N7     N     0.34827   0.34827   0.00162   0.00000  Uiso   1.00
C26    C     0.32940   0.36671   0.00164   0.00000  Uiso   1.00
C27    C     0.32940   0.38172   0.00162   0.00000  Uiso   1.00
C28    C     0.34399   0.38602   0.00158   0.00000  Uiso   1.00
C29    C     0.31636   0.38992   0.00164   0.00000  Uiso   1.00
C30    C     0.30285   0.38213   0.00169   0.00000  Uiso   1.00
C31    C     0.30285   0.36631   0.00171   0.00000  Uiso   1.00
C32    C     0.31636   0.35852   0.00169   0.00000  Uiso   1.00
N8     N     0.34827   0.40017   0.00155   0.00000  Uiso   1.00
H1     H     0.34653   0.43175   0.00155   0.00000  Uiso   1.00
H2     H     0.40190   0.43176   0.00140   0.00000  Uiso   1.00
H3     H     0.43176   0.40190   0.00141   0.00000  Uiso   1.00
H4     H     0.43176   0.34654   0.00153   0.00000  Uiso   1.00
H5     H     0.34655   0.31668   0.00168   0.00000  Uiso   1.00
H6     H     0.40189   0.31668   0.00160   0.00000  Uiso   1.00
H7     H     0.31668   0.40189   0.00163   0.00000  Uiso   1.00
H8     H     0.31668   0.34655   0.00170   0.00000  Uiso   1.00
C33    C     0.28938   0.38980   0.00170   0.00000  Uiso   1.00
C34    C     0.27605   0.38202   0.00174   0.00000  Uiso   1.00
C35    C     0.27605   0.36642   0.00176   0.00000  Uiso   1.00
C36    C     0.28938   0.35864   0.00174   0.00000  Uiso   1.00
C37    C     0.35865   0.45909   0.00155   0.00000  Uiso   1.00
C38    C     0.36662   0.47230   0.00156   0.00000  Uiso   1.00
C39    C     0.38181   0.47230   0.00152   0.00000  Uiso   1.00
C40    C     0.38978   0.45909   0.00147   0.00000  Uiso   1.00
C41    C     0.45909   0.38979   0.00147   0.00000  Uiso   1.00
C42    C     0.47230   0.38181   0.00152   0.00000  Uiso   1.00
C43    C     0.47230   0.36662   0.00155   0.00000  Uiso   1.00
C44    C     0.45909   0.35865   0.00154   0.00000  Uiso   1.00
C45    C     0.35865   0.28938   0.00171   0.00000  Uiso   1.00
C46    C     0.36643   0.27605   0.00172   0.00000  Uiso   1.00
C47    C     0.38203   0.27605   0.00170   0.00000  Uiso   1.00
C48    C     0.38980   0.28938   0.00167   0.00000  Uiso   1.00
H9     H     0.28920   0.40177   0.00169   0.00000  Uiso   1.00
O1     O     0.26262   0.38960   0.00175   0.00000  Uiso   1.00
O2     O     0.26262   0.35885   0.00179   0.00000  Uiso   1.00
H10    H     0.28919   0.34667   0.00176   0.00000  Uiso   1.00
H11    H     0.34668   0.45939   0.00158   0.00000  Uiso   1.00
O3     O     0.35990   0.48600   0.00162   0.00000  Uiso   1.00
O4     O     0.38852   0.48600   0.00154   0.00000  Uiso   1.00
H12    H     0.40175   0.45939   0.00144   0.00000  Uiso   1.00
H13    H     0.45939   0.40175   0.00144   0.00000  Uiso   1.00
O5     O     0.48600   0.38853   0.00155   0.00000  Uiso   1.00
O6     O     0.48600   0.35990   0.00161   0.00000  Uiso   1.00
H14    H     0.45939   0.34668   0.00157   0.00000  Uiso   1.00
H15    H     0.34668   0.28919   0.00173   0.00000  Uiso   1.00
O7     O     0.35885   0.26262   0.00174   0.00000  Uiso   1.00
O8     O     0.38961   0.26262   0.00171   0.00000  Uiso   1.00
H16    H     0.40177   0.28920   0.00165   0.00000  Uiso   1.00
Ni1    Ni    0.37422   0.37422   0.00152   0.00000  Uiso   1.00
C49    C     0.64150   0.43208   0.00204   0.00000  Uiso   1.00
C50    C     0.63371   0.44558   0.00210   0.00000  Uiso   1.00
C51    C     0.61786   0.44558   0.00214   0.00000  Uiso   1.00
C52    C     0.61007   0.43208   0.00211   0.00000  Uiso   1.00
C53    C     0.61828   0.41904   0.00205   0.00000  Uiso   1.00
C54    C     0.63329   0.41904   0.00202   0.00000  Uiso   1.00
C55    C     0.63758   0.40445   0.00200   0.00000  Uiso   1.00
N9     N     0.62578   0.39516   0.00202   0.00000  Uiso   1.00
C56    C     0.61398   0.40445   0.00205   0.00000  Uiso   1.00
N10    N     0.59983   0.40017   0.00205   0.00000  Uiso   1.00
C57    C     0.59555   0.38602   0.00206   0.00000  Uiso   1.00
N11    N     0.60484   0.37422   0.00209   0.00000  Uiso   1.00
C58    C     0.59555   0.36242   0.00211   0.00000  Uiso   1.00
C59    C     0.58096   0.36671   0.00209   0.00000  Uiso   1.00
C60    C     0.58096   0.38173   0.00206   0.00000  Uiso   1.00
N12    N     0.62578   0.35328   0.00211   0.00000  Uiso   1.00
C61    C     0.61398   0.34399   0.00217   0.00000  Uiso   1.00
N13    N     0.59983   0.34827   0.00216   0.00000  Uiso   1.00
C62    C     0.61828   0.32940   0.00222   0.00000  Uiso   1.00
C63    C     0.63328   0.32940   0.00219   0.00000  Uiso   1.00
C64    C     0.63758   0.34399   0.00212   0.00000  Uiso   1.00
C65    C     0.56792   0.38993   0.00200   0.00000  Uiso   1.00
C66    C     0.55442   0.38214   0.00196   0.00000  Uiso   1.00
C67    C     0.55442   0.36629   0.00200   0.00000  Uiso   1.00
C68    C     0.56792   0.35850   0.00206   0.00000  Uiso   1.00
C69    C     0.64148   0.31636   0.00222   0.00000  Uiso   1.00
C70    C     0.63369   0.30285   0.00228   0.00000  Uiso   1.00
C71    C     0.61787   0.30285   0.00231   0.00000  Uiso   1.00
C72    C     0.61008   0.31636   0.00228   0.00000  Uiso   1.00
N14    N     0.64672   0.37422   0.00200   0.00000  Uiso   1.00
C73    C     0.65601   0.36242   0.00199   0.00000  Uiso   1.00
N15    N     0.65173   0.34827   0.00205   0.00000  Uiso   1.00
C74    C     0.67060   0.36671   0.00192   0.00000  Uiso   1.00
C75    C     0.67060   0.38172   0.00189   0.00000  Uiso   1.00
C76    C     0.65601   0.38602   0.00194   0.00000  Uiso   1.00
C77    C     0.68364   0.38992   0.00182   0.00000  Uiso   1.00
C78    C     0.69715   0.38213   0.00179   0.00000  Uiso   1.00
C79    C     0.69715   0.36631   0.00182   0.00000  Uiso   1.00
C80    C     0.68364   0.35851   0.00188   0.00000  Uiso   1.00
N16    N     0.65173   0.40017   0.00195   0.00000  Uiso   1.00
H17    H     0.65347   0.43175   0.00202   0.00000  Uiso   1.00
H18    H     0.59810   0.43176   0.00214   0.00000  Uiso   1.00
H19    H     0.56824   0.40190   0.00196   0.00000  Uiso   1.00
H20    H     0.56825   0.34653   0.00209   0.00000  Uiso   1.00
H21    H     0.65345   0.31668   0.00219   0.00000  Uiso   1.00
H22    H     0.59811   0.31668   0.00230   0.00000  Uiso   1.00
H23    H     0.68332   0.40189   0.00180   0.00000  Uiso   1.00
H24    H     0.68332   0.34655   0.00191   0.00000  Uiso   1.00
C81    C     0.71062   0.38979   0.00172   0.00000  Uiso   1.00
C82    C     0.72395   0.38202   0.00170   0.00000  Uiso   1.00
C83    C     0.72395   0.36642   0.00172   0.00000  Uiso   1.00
C84    C     0.71062   0.35864   0.00178   0.00000  Uiso   1.00
C85    C     0.64136   0.45909   0.00214   0.00000  Uiso   1.00
C86    C     0.63338   0.47230   0.00222   0.00000  Uiso   1.00
C87    C     0.61819   0.47230   0.00226   0.00000  Uiso   1.00
C88    C     0.61022   0.45909   0.00222   0.00000  Uiso   1.00
C89    C     0.54091   0.38979   0.00187   0.00000  Uiso   1.00
C90    C     0.52770   0.38181   0.00182   0.00000  Uiso   1.00
C91    C     0.52770   0.36662   0.00185   0.00000  Uiso   1.00
C92    C     0.54091   0.35865   0.00194   0.00000  Uiso   1.00
C93    C     0.64135   0.28938   0.00232   0.00000  Uiso   1.00
C94    C     0.63357   0.27604   0.00237   0.00000  Uiso   1.00
C95    C     0.61797   0.27605   0.00240   0.00000  Uiso   1.00
C96    C     0.61020   0.28938   0.00237   0.00000  Uiso   1.00
H25    H     0.71080   0.40177   0.00170   0.00000  Uiso   1.00
O9     O     0.73738   0.38960   0.00166   0.00000  Uiso   1.00
O10    O     0.73738   0.35884   0.00171   0.00000  Uiso   1.00
H26    H     0.71081   0.34667   0.00180   0.00000  Uiso   1.00
H27    H     0.65332   0.45939   0.00212   0.00000  Uiso   1.00
O11    O     0.64010   0.48600   0.00228   0.00000  Uiso   1.00
O12    O     0.61148   0.48600   0.00235   0.00000  Uiso   1.00
H28    H     0.59825   0.45939   0.00225   0.00000  Uiso   1.00
H29    H     0.54061   0.40175   0.00184   0.00000  Uiso   1.00
O13    O     0.51400   0.38853   0.00171   0.00000  Uiso   1.00
O14    O     0.51400   0.35990   0.00178   0.00000  Uiso   1.00
H30    H     0.54061   0.34668   0.00196   0.00000  Uiso   1.00
H31    H     0.65332   0.28919   0.00230   0.00000  Uiso   1.00
O15    O     0.64115   0.26261   0.00239   0.00000  Uiso   1.00
O16    O     0.61039   0.26262   0.00243   0.00000  Uiso   1.00
H32    H     0.59823   0.28920   0.00239   0.00000  Uiso   1.00
Ni2    Ni    0.62578   0.37422   0.00206   0.00000  Uiso   1.00
C97    C     0.64150   0.56792   0.00258   0.00000  Uiso   1.00
C98    C     0.63371   0.55442   0.00258   0.00000  Uiso   1.00
C99    C     0.61786   0.55442   0.00262   0.00000  Uiso   1.00
C100   C     0.61007   0.56792   0.00266   0.00000  Uiso   1.00
C101   C     0.61827   0.58096   0.00265   0.00000  Uiso   1.00
C102   C     0.63329   0.58096   0.00261   0.00000  Uiso   1.00
C103   C     0.63758   0.59555   0.00259   0.00000  Uiso   1.00
N17    N     0.62578   0.60484   0.00261   0.00000  Uiso   1.00
C104   C     0.61398   0.59555   0.00265   0.00000  Uiso   1.00
N18    N     0.59983   0.59983   0.00266   0.00000  Uiso   1.00
C105   C     0.59555   0.61398   0.00265   0.00000  Uiso   1.00
N19    N     0.60484   0.62578   0.00261   0.00000  Uiso   1.00
C106   C     0.59555   0.63758   0.00259   0.00000  Uiso   1.00
C107   C     0.58096   0.63329   0.00261   0.00000  Uiso   1.00
C108   C     0.58096   0.61827   0.00265   0.00000  Uiso   1.00
N20    N     0.62578   0.64672   0.00253   0.00000  Uiso   1.00
C109   C     0.61398   0.65601   0.00253   0.00000  Uiso   1.00
N21    N     0.59983   0.65173   0.00255   0.00000  Uiso   1.00
C110   C     0.61827   0.67060   0.00249   0.00000  Uiso   1.00
C111   C     0.63328   0.67060   0.00247   0.00000  Uiso   1.00
C112   C     0.63758   0.65601   0.00249   0.00000  Uiso   1.00
C113   C     0.56792   0.61007   0.00266   0.00000  Uiso   1.00
C114   C     0.55442   0.61786   0.00262   0.00000  Uiso   1.00
C115   C     0.55442   0.63371   0.00258   0.00000  Uiso   1.00
C116   C     0.56792   0.64150   0.00259   0.00000  Uiso   1.00
C117   C     0.64148   0.68364   0.00243   0.00000  Uiso   1.00
C118   C     0.63369   0.69715   0.00242   0.00000  Uiso   1.00
C119   C     0.61787   0.69715   0.00244   0.00000  Uiso   1.00
C120   C     0.61007   0.68364   0.00248   0.00000  Uiso   1.00
N22    N     0.64672   0.62578   0.00252   0.00000  Uiso   1.00
C121   C     0.65601   0.63758   0.00248   0.00000  Uiso   1.00
N23    N     0.65173   0.65173   0.00247   0.00000  Uiso   1.00
C122   C     0.67060   0.63329   0.00245   0.00000  Uiso   1.00
C123   C     0.67060   0.61828   0.00247   0.00000  Uiso   1.00
C124   C     0.65601   0.61398   0.00252   0.00000  Uiso   1.00
C125   C     0.68364   0.61008   0.00246   0.00000  Uiso   1.00
C126   C     0.69715   0.61787   0.00242   0.00000  Uiso   1.00
C127   C     0.69715   0.63369   0.00239   0.00000  Uiso   1.00
C128   C     0.68364   0.64148   0.00241   0.00000  Uiso   1.00
N24    N     0.65173   0.59983   0.00254   0.00000  Uiso   1.00
H33    H     0.65347   0.56825   0.00254   0.00000  Uiso   1.00
H34    H     0.59810   0.56824   0.00268   0.00000  Uiso   1.00
H35    H     0.56824   0.59810   0.00268   0.00000  Uiso   1.00
H36    H     0.56824   0.65346   0.00255   0.00000  Uiso   1.00
H37    H     0.65345   0.68332   0.00241   0.00000  Uiso   1.00
H38    H     0.59811   0.68331   0.00250   0.00000  Uiso   1.00
H39    H     0.68332   0.59811   0.00247   0.00000  Uiso   1.00
H40    H     0.68332   0.65345   0.00240   0.00000  Uiso   1.00
C129   C     0.71062   0.61020   0.00240   0.00000  Uiso   1.00
C130   C     0.72395   0.61798   0.00237   0.00000  Uiso   1.00
C131   C     0.72395   0.63358   0.00234   0.00000  Uiso   1.00
C132   C     0.71062   0.64135   0.00236   0.00000  Uiso   1.00
C133   C     0.64135   0.54091   0.00253   0.00000  Uiso   1.00
C134   C     0.63338   0.52770   0.00251   0.00000  Uiso   1.00
C135   C     0.61819   0.52770   0.00255   0.00000  Uiso   1.00
C136   C     0.61022   0.54091   0.00261   0.00000  Uiso   1.00
C137   C     0.54091   0.61021   0.00261   0.00000  Uiso   1.00
C138   C     0.52770   0.61819   0.00255   0.00000  Uiso   1.00
C139   C     0.52770   0.63338   0.00251   0.00000  Uiso   1.00
C140   C     0.54091   0.64135   0.00253   0.00000  Uiso   1.00
C141   C     0.64135   0.71062   0.00239   0.00000  Uiso   1.00
C142   C     0.63357   0.72395   0.00238   0.00000  Uiso   1.00
C143   C     0.61797   0.72395   0.00240   0.00000  Uiso   1.00
C144   C     0.61020   0.71062   0.00243   0.00000  Uiso   1.00
H41    H     0.71080   0.59823   0.00242   0.00000  Uiso   1.00
O17    O     0.73738   0.61040   0.00236   0.00000  Uiso   1.00
O18    O     0.73738   0.64115   0.00232   0.00000  Uiso   1.00
H42    H     0.71081   0.65333   0.00234   0.00000  Uiso   1.00
H43    H     0.65332   0.54061   0.00250   0.00000  Uiso   1.00
O19    O     0.64010   0.51400   0.00244   0.00000  Uiso   1.00
O20    O     0.61148   0.51400   0.00251   0.00000  Uiso   1.00
H44    H     0.59825   0.54061   0.00263   0.00000  Uiso   1.00
H45    H     0.54061   0.59825   0.00263   0.00000  Uiso   1.00
O21    O     0.51400   0.61147   0.00251   0.00000  Uiso   1.00
O22    O     0.51400   0.64010   0.00244   0.00000  Uiso   1.00
H46    H     0.54061   0.65332   0.00250   0.00000  Uiso   1.00
H47    H     0.65332   0.71081   0.00237   0.00000  Uiso   1.00
O23    O     0.64115   0.73738   0.00236   0.00000  Uiso   1.00
O24    O     0.61039   0.73738   0.00239   0.00000  Uiso   1.00
H48    H     0.59823   0.71080   0.00245   0.00000  Uiso   1.00
Ni3    Ni    0.62578   0.62578   0.00257   0.00000  Uiso   1.00
C145   C     0.35850   0.56792   0.00207   0.00000  Uiso   1.00
C146   C     0.36629   0.55442   0.00199   0.00000  Uiso   1.00
C147   C     0.38214   0.55442   0.00196   0.00000  Uiso   1.00
C148   C     0.38993   0.56792   0.00199   0.00000  Uiso   1.00
C149   C     0.38172   0.58096   0.00205   0.00000  Uiso   1.00
C150   C     0.36671   0.58096   0.00209   0.00000  Uiso   1.00
C151   C     0.36242   0.59555   0.00211   0.00000  Uiso   1.00
N25    N     0.37422   0.60484   0.00209   0.00000  Uiso   1.00
C152   C     0.38602   0.59555   0.00206   0.00000  Uiso   1.00
N26    N     0.40017   0.59983   0.00205   0.00000  Uiso   1.00
C153   C     0.40445   0.61398   0.00204   0.00000  Uiso   1.00
N27    N     0.39516   0.62578   0.00202   0.00000  Uiso   1.00
C154   C     0.40445   0.63758   0.00200   0.00000  Uiso   1.00
C155   C     0.41904   0.63329   0.00202   0.00000  Uiso   1.00
C156   C     0.41904   0.61827   0.00205   0.00000  Uiso   1.00
N28    N     0.37422   0.64672   0.00201   0.00000  Uiso   1.00
C157   C     0.38602   0.65601   0.00195   0.00000  Uiso   1.00
N29    N     0.40017   0.65173   0.00196   0.00000  Uiso   1.00
C158   C     0.38172   0.67060   0.00190   0.00000  Uiso   1.00
C159   C     0.36672   0.67060   0.00194   0.00000  Uiso   1.00
C160   C     0.36242   0.65601   0.00200   0.00000  Uiso   1.00
C161   C     0.43208   0.61007   0.00210   0.00000  Uiso   1.00
C162   C     0.44558   0.61786   0.00213   0.00000  Uiso   1.00
C163   C     0.44558   0.63371   0.00210   0.00000  Uiso   1.00
C164   C     0.43208   0.64150   0.00204   0.00000  Uiso   1.00
C165   C     0.35852   0.68364   0.00190   0.00000  Uiso   1.00
C166   C     0.36631   0.69715   0.00184   0.00000  Uiso   1.00
C167   C     0.38213   0.69715   0.00181   0.00000  Uiso   1.00
C168   C     0.38992   0.68364   0.00184   0.00000  Uiso   1.00
N30    N     0.35328   0.62578   0.00212   0.00000  Uiso   1.00
C169   C     0.34399   0.63758   0.00213   0.00000  Uiso   1.00
N31    N     0.34827   0.65173   0.00207   0.00000  Uiso   1.00
C170   C     0.32940   0.63329   0.00220   0.00000  Uiso   1.00
C171   C     0.32940   0.61828   0.00223   0.00000  Uiso   1.00
C172   C     0.34399   0.61398   0.00218   0.00000  Uiso   1.00
C173   C     0.31636   0.61008   0.00230   0.00000  Uiso   1.00
C174   C     0.30285   0.61787   0.00234   0.00000  Uiso   1.00
C175   C     0.30285   0.63369   0.00231   0.00000  Uiso   1.00
C176   C     0.31636   0.64149   0.00224   0.00000  Uiso   1.00
N32    N     0.34827   0.59983   0.00216   0.00000  Uiso   1.00
H49    H     0.34653   0.56825   0.00209   0.00000  Uiso   1.00
H50    H     0.40190   0.56824   0.00196   0.00000  Uiso   1.00
H51    H     0.43176   0.59810   0.00213   0.00000  Uiso   1.00
H52    H     0.43175   0.65347   0.00202   0.00000  Uiso   1.00
H53    H     0.34655   0.68332   0.00193   0.00000  Uiso   1.00
H54    H     0.40189   0.68332   0.00182   0.00000  Uiso   1.00
H55    H     0.31668   0.59811   0.00232   0.00000  Uiso   1.00
H56    H     0.31668   0.65345   0.00222   0.00000  Uiso   1.00
C177   C     0.28938   0.61020   0.00240   0.00000  Uiso   1.00
C178   C     0.27605   0.61798   0.00243   0.00000  Uiso   1.00
C179   C     0.27604   0.63358   0.00241   0.00000  Uiso   1.00
C180   C     0.28938   0.64136   0.00235   0.00000  Uiso   1.00
C181   C     0.35864   0.54091   0.00194   0.00000  Uiso   1.00
C182   C     0.36662   0.52770   0.00185   0.00000  Uiso   1.00
C183   C     0.38181   0.52770   0.00181   0.00000  Uiso   1.00
C184   C     0.38978   0.54091   0.00187   0.00000  Uiso   1.00
C185   C     0.45909   0.61021   0.00221   0.00000  Uiso   1.00
C186   C     0.47230   0.61819   0.00225   0.00000  Uiso   1.00
C187   C     0.47230   0.63338   0.00222   0.00000  Uiso   1.00
C188   C     0.45909   0.64135   0.00214   0.00000  Uiso   1.00
C189   C     0.35865   0.71062   0.00181   0.00000  Uiso   1.00
C190   C     0.36642   0.72396   0.00176   0.00000  Uiso   1.00
C191   C     0.38203   0.72395   0.00173   0.00000  Uiso   1.00
C192   C     0.38980   0.71062   0.00175   0.00000  Uiso   1.00
H57    H     0.28920   0.59823   0.00242   0.00000  Uiso   1.00
O25    O     0.26262   0.61040   0.00248   0.00000  Uiso   1.00
O26    O     0.26262   0.64115   0.00243   0.00000  Uiso   1.00
H58    H     0.28919   0.65333   0.00233   0.00000  Uiso   1.00
H59    H     0.34668   0.54061   0.00197   0.00000  Uiso   1.00
O27    O     0.35990   0.51400   0.00178   0.00000  Uiso   1.00
O28    O     0.38852   0.51400   0.00171   0.00000  Uiso   1.00
H60    H     0.40175   0.54061   0.00183   0.00000  Uiso   1.00
H61    H     0.45939   0.59825   0.00224   0.00000  Uiso   1.00
O29    O     0.48600   0.61147   0.00234   0.00000  Uiso   1.00
O30    O     0.48600   0.64010   0.00228   0.00000  Uiso   1.00
H62    H     0.45939   0.65332   0.00212   0.00000  Uiso   1.00
H63    H     0.34668   0.71081   0.00183   0.00000  Uiso   1.00
O31    O     0.35885   0.73738   0.00174   0.00000  Uiso   1.00
O32    O     0.38960   0.73738   0.00169   0.00000  Uiso   1.00
H64    H     0.40177   0.71080   0.00173   0.00000  Uiso   1.00
Ni4    Ni    0.37422   0.62578   0.00206   0.00000  Uiso   1.00
C193   C     0.11007   0.37417   0.77180   0.00000  Uiso   1.00
C194   C     0.11786   0.37418   0.71812   0.00000  Uiso   1.00
C195   C     0.13371   0.37420   0.71812   0.00000  Uiso   1.00
C196   C     0.14150   0.37421   0.77179   0.00000  Uiso   1.00
C197   C     0.13329   0.37420   0.82362   0.00000  Uiso   1.00
C198   C     0.11828   0.37418   0.82362   0.00000  Uiso   1.00
C199   C     0.11398   0.37418   0.88163   0.00000  Uiso   1.00
N33    N     0.12578   0.37419   0.91857   0.00000  Uiso   1.00
C200   C     0.13758   0.37421   0.88163   0.00000  Uiso   1.00
N34    N     0.15173   0.37422   0.89864   0.00000  Uiso   1.00
C201   C     0.15601   0.37423   0.95490   0.00000  Uiso   1.00
N35    N     0.14672   0.37422   0.00180   0.00000  Uiso   1.00
C202   C     0.15601   0.37423   0.04870   0.00000  Uiso   1.00
C203   C     0.17060   0.37424   0.03163   0.00000  Uiso   1.00
C204   C     0.17060   0.37424   0.97197   0.00000  Uiso   1.00
N36    N     0.12578   0.37419   0.08502   0.00000  Uiso   1.00
C205   C     0.13758   0.37421   0.12196   0.00000  Uiso   1.00
N37    N     0.15173   0.37423   0.10496   0.00000  Uiso   1.00
C206   C     0.13329   0.37421   0.17997   0.00000  Uiso   1.00
C207   C     0.11827   0.37419   0.17997   0.00000  Uiso   1.00
C208   C     0.11398   0.37418   0.12196   0.00000  Uiso   1.00
C209   C     0.18364   0.37424   0.93937   0.00000  Uiso   1.00
C210   C     0.19715   0.37424   0.97035   0.00000  Uiso   1.00
C211   C     0.19715   0.37425   0.03323   0.00000  Uiso   1.00
C212   C     0.18364   0.37425   0.06422   0.00000  Uiso   1.00
C213   C     0.11006   0.37418   0.23180   0.00000  Uiso   1.00
C214   C     0.11785   0.37418   0.28547   0.00000  Uiso   1.00
C215   C     0.13370   0.37420   0.28547   0.00000  Uiso   1.00
C216   C     0.14150   0.37421   0.23180   0.00000  Uiso   1.00
N38    N     0.10484   0.37416   0.00180   0.00000  Uiso   1.00
C217   C     0.09555   0.37414   0.04870   0.00000  Uiso   1.00
N39    N     0.09983   0.37415   0.10496   0.00000  Uiso   1.00
C218   C     0.08096   0.37411   0.03164   0.00000  Uiso   1.00
C219   C     0.08096   0.37411   0.97196   0.00000  Uiso   1.00
C220   C     0.09555   0.37414   0.95490   0.00000  Uiso   1.00
C221   C     0.06792   0.37408   0.93932   0.00000  Uiso   1.00
C222   C     0.05442   0.37406   0.97028   0.00000  Uiso   1.00
C223   C     0.05442   0.37406   0.03329   0.00000  Uiso   1.00
C224   C     0.06792   0.37408   0.06427   0.00000  Uiso   1.00
N40    N     0.09983   0.37415   0.89864   0.00000  Uiso   1.00
H65    H     0.09810   0.37416   0.77309   0.00000  Uiso   1.00
H66    H     0.15347   0.37422   0.77307   0.00000  Uiso   1.00
H67    H     0.18332   0.37424   0.89180   0.00000  Uiso   1.00
H68    H     0.18332   0.37425   0.11179   0.00000  Uiso   1.00
H69    H     0.09810   0.37416   0.23051   0.00000  Uiso   1.00
H70    H     0.15346   0.37422   0.23052   0.00000  Uiso   1.00
H71    H     0.06825   0.37408   0.89174   0.00000  Uiso   1.00
H72    H     0.06824   0.37409   0.11184   0.00000  Uiso   1.00
C225   C     0.04091   0.37403   0.93989   0.00000  Uiso   1.00
C226   C     0.02770   0.37401   0.97159   0.00000  Uiso   1.00
C227   C     0.02770   0.37401   0.03195   0.00000  Uiso   1.00
C228   C     0.04091   0.37403   0.06367   0.00000  Uiso   1.00
C229   C     0.11021   0.37417   0.66442   0.00000  Uiso   1.00
C230   C     0.11819   0.37417   0.61191   0.00000  Uiso   1.00
C231   C     0.13337   0.37419   0.61191   0.00000  Uiso   1.00
C232   C     0.14135   0.37420   0.66441   0.00000  Uiso   1.00
C233   C     0.21062   0.37424   0.93987   0.00000  Uiso   1.00
C234   C     0.22395   0.37424   0.97077   0.00000  Uiso   1.00
C235   C     0.22395   0.37424   0.03280   0.00000  Uiso   1.00
C236   C     0.21062   0.37424   0.06371   0.00000  Uiso   1.00
C237   C     0.11021   0.37417   0.33918   0.00000  Uiso   1.00
C238   C     0.11819   0.37418   0.39168   0.00000  Uiso   1.00
C239   C     0.13337   0.37419   0.39168   0.00000  Uiso   1.00
C240   C     0.14135   0.37420   0.33918   0.00000  Uiso   1.00
H73    H     0.04062   0.37403   0.89231   0.00000  Uiso   1.00
O33    O     0.01400   0.37399   0.94487   0.00000  Uiso   1.00
O34    O     0.01400   0.37399   0.05865   0.00000  Uiso   1.00
H74    H     0.04061   0.37404   0.11124   0.00000  Uiso   1.00
H75    H     0.09824   0.37416   0.66325   0.00000  Uiso   1.00
O35    O     0.11147   0.37416   0.55745   0.00000  Uiso   1.00
O36    O     0.14009   0.37419   0.55744   0.00000  Uiso   1.00
H76    H     0.15332   0.37421   0.66323   0.00000  Uiso   1.00
H77    H     0.21080   0.37424   0.89228   0.00000  Uiso   1.00
O37    O     0.23738   0.37423   0.94066   0.00000  Uiso   1.00
O38    O     0.23738   0.37423   0.06291   0.00000  Uiso   1.00
H78    H     0.21081   0.37425   0.11130   0.00000  Uiso   1.00
H79    H     0.09824   0.37416   0.34036   0.00000  Uiso   1.00
O39    O     0.11147   0.37417   0.44615   0.00000  Uiso   1.00
O40    O     0.14009   0.37419   0.44615   0.00000  Uiso   1.00
H80    H     0.15331   0.37422   0.34036   0.00000  Uiso   1.00
Ni5    Ni    0.12578   0.37419   0.00180   0.00000  Uiso   1.00
C241   C     0.62575   0.18364   0.06485   0.00000  Uiso   1.00
C242   C     0.62575   0.19715   0.03386   0.00000  Uiso   1.00
C243   C     0.62575   0.19715   0.97098   0.00000  Uiso   1.00
C244   C     0.62575   0.18364   0.94000   0.00000  Uiso   1.00
C245   C     0.62575   0.17060   0.97259   0.00000  Uiso   1.00
C246   C     0.62575   0.17060   0.03225   0.00000  Uiso   1.00
C247   C     0.62577   0.15601   0.04932   0.00000  Uiso   1.00
N41    N     0.62577   0.14672   0.00242   0.00000  Uiso   1.00
C248   C     0.62576   0.15601   0.95552   0.00000  Uiso   1.00
N42    N     0.62577   0.15173   0.89926   0.00000  Uiso   1.00
C249   C     0.62579   0.13758   0.88225   0.00000  Uiso   1.00
N43    N     0.62581   0.12578   0.91919   0.00000  Uiso   1.00
C250   C     0.62582   0.11398   0.88225   0.00000  Uiso   1.00
C251   C     0.62581   0.11828   0.82425   0.00000  Uiso   1.00
C252   C     0.62579   0.13329   0.82424   0.00000  Uiso   1.00
N44    N     0.62584   0.10484   0.00242   0.00000  Uiso   1.00
C253   C     0.62586   0.09555   0.95552   0.00000  Uiso   1.00
N45    N     0.62585   0.09983   0.89926   0.00000  Uiso   1.00
C254   C     0.62588   0.08096   0.97258   0.00000  Uiso   1.00
C255   C     0.62589   0.08096   0.03226   0.00000  Uiso   1.00
C256   C     0.62586   0.09555   0.04932   0.00000  Uiso   1.00
C257   C     0.62579   0.14150   0.77241   0.00000  Uiso   1.00
C258   C     0.62580   0.13371   0.71874   0.00000  Uiso   1.00
C259   C     0.62582   0.11786   0.71875   0.00000  Uiso   1.00
C260   C     0.62582   0.11007   0.77242   0.00000  Uiso   1.00
C261   C     0.62591   0.06792   0.06489   0.00000  Uiso   1.00
C262   C     0.62593   0.05442   0.03391   0.00000  Uiso   1.00
C263   C     0.62593   0.05442   0.97090   0.00000  Uiso   1.00
C264   C     0.62591   0.06792   0.93994   0.00000  Uiso   1.00
N46    N     0.62581   0.12578   0.08565   0.00000  Uiso   1.00
C265   C     0.62583   0.11398   0.12259   0.00000  Uiso   1.00
N47    N     0.62585   0.09983   0.10558   0.00000  Uiso   1.00
C266   C     0.62582   0.11827   0.18060   0.00000  Uiso   1.00
C267   C     0.62580   0.13328   0.18059   0.00000  Uiso   1.00
C268   C     0.62580   0.13758   0.12259   0.00000  Uiso   1.00
C269   C     0.62580   0.14149   0.23242   0.00000  Uiso   1.00
C270   C     0.62581   0.13370   0.28609   0.00000  Uiso   1.00
C271   C     0.62582   0.11785   0.28610   0.00000  Uiso   1.00
C272   C     0.62583   0.11006   0.23242   0.00000  Uiso   1.00
N48    N     0.62578   0.15173   0.10558   0.00000  Uiso   1.00
H81    H     0.62576   0.18332   0.11242   0.00000  Uiso   1.00
H82    H     0.62575   0.18332   0.89242   0.00000  Uiso   1.00
H83    H     0.62577   0.15347   0.77369   0.00000  Uiso   1.00
H84    H     0.62584   0.09810   0.77371   0.00000  Uiso   1.00
H85    H     0.62591   0.06824   0.11246   0.00000  Uiso   1.00
H86    H     0.62591   0.06825   0.89237   0.00000  Uiso   1.00
H87    H     0.62578   0.15346   0.23113   0.00000  Uiso   1.00
H88    H     0.62585   0.09809   0.23114   0.00000  Uiso   1.00
C273   C     0.62580   0.14135   0.33980   0.00000  Uiso   1.00
C274   C     0.62581   0.13337   0.39230   0.00000  Uiso   1.00
C275   C     0.62582   0.11818   0.39231   0.00000  Uiso   1.00
C276   C     0.62583   0.11021   0.33981   0.00000  Uiso   1.00
C277   C     0.62575   0.21062   0.06434   0.00000  Uiso   1.00
C278   C     0.62576   0.22395   0.03343   0.00000  Uiso   1.00
C279   C     0.62575   0.22395   0.97141   0.00000  Uiso   1.00
C280   C     0.62575   0.21062   0.94050   0.00000  Uiso   1.00
C281   C     0.62579   0.14135   0.66503   0.00000  Uiso   1.00
C282   C     0.62580   0.13337   0.61253   0.00000  Uiso   1.00
C283   C     0.62582   0.11819   0.61254   0.00000  Uiso   1.00
C284   C     0.62582   0.11021   0.66504   0.00000  Uiso   1.00
C285   C     0.62596   0.04090   0.06429   0.00000  Uiso   1.00
C286   C     0.62598   0.02770   0.03257   0.00000  Uiso   1.00
C287   C     0.62598   0.02770   0.97221   0.00000  Uiso   1.00
C288   C     0.62596   0.04091   0.94051   0.00000  Uiso   1.00
H89    H     0.62579   0.15331   0.34097   0.00000  Uiso   1.00
O41    O     0.62580   0.14009   0.44677   0.00000  Uiso   1.00
O42    O     0.62583   0.11146   0.44678   0.00000  Uiso   1.00
H90    H     0.62584   0.09824   0.34098   0.00000  Uiso   1.00
H91    H     0.62576   0.21080   0.11193   0.00000  Uiso   1.00
O43    O     0.62577   0.23738   0.06355   0.00000  Uiso   1.00
O44    O     0.62576   0.23738   0.94129   0.00000  Uiso   1.00
H92    H     0.62574   0.21081   0.89291   0.00000  Uiso   1.00
H93    H     0.62578   0.15332   0.66384   0.00000  Uiso   1.00
O45    O     0.62580   0.14009   0.55806   0.00000  Uiso   1.00
O46    O     0.62583   0.11147   0.55808   0.00000  Uiso   1.00
H94    H     0.62584   0.09824   0.66388   0.00000  Uiso   1.00
H95    H     0.62596   0.04061   0.11186   0.00000  Uiso   1.00
O47    O     0.62600   0.01400   0.05928   0.00000  Uiso   1.00
O48    O     0.62600   0.01400   0.94549   0.00000  Uiso   1.00
H96    H     0.62596   0.04062   0.89294   0.00000  Uiso   1.00
Ni6    Ni    0.62580   0.12578   0.00242   0.00000  Uiso   1.00
C289   C     0.88993   0.62583   0.23232   0.00000  Uiso   1.00
C290   C     0.88214   0.62583   0.28599   0.00000  Uiso   1.00
C291   C     0.86629   0.62581   0.28600   0.00000  Uiso   1.00
C292   C     0.85850   0.62580   0.23233   0.00000  Uiso   1.00
C293   C     0.86671   0.62580   0.18050   0.00000  Uiso   1.00
C294   C     0.88172   0.62582   0.18050   0.00000  Uiso   1.00
C295   C     0.88602   0.62583   0.12249   0.00000  Uiso   1.00
N49    N     0.87422   0.62581   0.08555   0.00000  Uiso   1.00
C296   C     0.86242   0.62580   0.12249   0.00000  Uiso   1.00
N50    N     0.84827   0.62578   0.10548   0.00000  Uiso   1.00
C297   C     0.84399   0.62577   0.04922   0.00000  Uiso   1.00
N51    N     0.85328   0.62578   0.00232   0.00000  Uiso   1.00
C298   C     0.84399   0.62577   0.95542   0.00000  Uiso   1.00
C299   C     0.82940   0.62576   0.97249   0.00000  Uiso   1.00
C300   C     0.82940   0.62576   0.03215   0.00000  Uiso   1.00
N52    N     0.87422   0.62581   0.91909   0.00000  Uiso   1.00
C301   C     0.86242   0.62579   0.88215   0.00000  Uiso   1.00
N53    N     0.84827   0.62578   0.89916   0.00000  Uiso   1.00
C302   C     0.86671   0.62580   0.82414   0.00000  Uiso   1.00
C303   C     0.88173   0.62582   0.82414   0.00000  Uiso   1.00
C304   C     0.88602   0.62583   0.88215   0.00000  Uiso   1.00
C305   C     0.81636   0.62576   0.06475   0.00000  Uiso   1.00
C306   C     0.80285   0.62575   0.03376   0.00000  Uiso   1.00
C307   C     0.80285   0.62575   0.97088   0.00000  Uiso   1.00
C308   C     0.81636   0.62575   0.93990   0.00000  Uiso   1.00
C309   C     0.88994   0.62583   0.77232   0.00000  Uiso   1.00
C310   C     0.88215   0.62582   0.71864   0.00000  Uiso   1.00
C311   C     0.86630   0.62580   0.71864   0.00000  Uiso   1.00
C312   C     0.85850   0.62579   0.77232   0.00000  Uiso   1.00
N54    N     0.89516   0.62585   0.00232   0.00000  Uiso   1.00
C313   C     0.90445   0.62586   0.95542   0.00000  Uiso   1.00
N55    N     0.90017   0.62585   0.89916   0.00000  Uiso   1.00
C314   C     0.91904   0.62589   0.97248   0.00000  Uiso   1.00
C315   C     0.91904   0.62589   0.03217   0.00000  Uiso   1.00
C316   C     0.90445   0.62586   0.04922   0.00000  Uiso   1.00
C317   C     0.93208   0.62592   0.06481   0.00000  Uiso   1.00
C318   C     0.94558   0.62594   0.03384   0.00000  Uiso   1.00
C319   C     0.94558   0.62594   0.97084   0.00000  Uiso   1.00
C320   C     0.93208   0.62591   0.93986   0.00000  Uiso   1.00
N56    N     0.90017   0.62585   0.10548   0.00000  Uiso   1.00
H97    H     0.90190   0.62585   0.23103   0.00000  Uiso   1.00
H98    H     0.84653   0.62578   0.23105   0.00000  Uiso   1.00
H99    H     0.81668   0.62576   0.11232   0.00000  Uiso   1.00
H100   H     0.81668   0.62575   0.89232   0.00000  Uiso   1.00
H101   H     0.90190   0.62584   0.77360   0.00000  Uiso   1.00
H102   H     0.84654   0.62578   0.77360   0.00000  Uiso   1.00
H103   H     0.93175   0.62592   0.11238   0.00000  Uiso   1.00
H104   H     0.93176   0.62591   0.89228   0.00000  Uiso   1.00
C321   C     0.95909   0.62596   0.06424   0.00000  Uiso   1.00
C322   C     0.97230   0.62598   0.03254   0.00000  Uiso   1.00
C323   C     0.97230   0.62598   0.97218   0.00000  Uiso   1.00
C324   C     0.95909   0.62596   0.94046   0.00000  Uiso   1.00
C325   C     0.88979   0.62583   0.33970   0.00000  Uiso   1.00
C326   C     0.88181   0.62583   0.39220   0.00000  Uiso   1.00
C327   C     0.86663   0.62581   0.39221   0.00000  Uiso   1.00
C328   C     0.85865   0.62580   0.33971   0.00000  Uiso   1.00
C329   C     0.78938   0.62576   0.06424   0.00000  Uiso   1.00
C330   C     0.77605   0.62576   0.03334   0.00000  Uiso   1.00
C331   C     0.77605   0.62576   0.97131   0.00000  Uiso   1.00
C332   C     0.78938   0.62575   0.94041   0.00000  Uiso   1.00
C333   C     0.88979   0.62583   0.66493   0.00000  Uiso   1.00
C334   C     0.88181   0.62582   0.61244   0.00000  Uiso   1.00
C335   C     0.86663   0.62581   0.61244   0.00000  Uiso   1.00
C336   C     0.85865   0.62580   0.66493   0.00000  Uiso   1.00
H105   H     0.95938   0.62597   0.11181   0.00000  Uiso   1.00
O49    O     0.98600   0.62600   0.05926   0.00000  Uiso   1.00
O50    O     0.98600   0.62600   0.94547   0.00000  Uiso   1.00
H106   H     0.95939   0.62596   0.89288   0.00000  Uiso   1.00
H107   H     0.90176   0.62585   0.34087   0.00000  Uiso   1.00
O51    O     0.88853   0.62583   0.44667   0.00000  Uiso   1.00
O52    O     0.85991   0.62580   0.44668   0.00000  Uiso   1.00
H108   H     0.84668   0.62579   0.34089   0.00000  Uiso   1.00
H109   H     0.78919   0.62576   0.11183   0.00000  Uiso   1.00
O53    O     0.76262   0.62577   0.06345   0.00000  Uiso   1.00
O54    O     0.76262   0.62576   0.94120   0.00000  Uiso   1.00
H110   H     0.78919   0.62575   0.89282   0.00000  Uiso   1.00
H111   H     0.90176   0.62584   0.66376   0.00000  Uiso   1.00
O55    O     0.88853   0.62583   0.55797   0.00000  Uiso   1.00
O56    O     0.85991   0.62580   0.55797   0.00000  Uiso   1.00
H112   H     0.84669   0.62579   0.66376   0.00000  Uiso   1.00
Ni7    Ni    0.87422   0.62581   0.00232   0.00000  Uiso   1.00
C337   C     0.37425   0.81636   0.93929   0.00000  Uiso   1.00
C338   C     0.37425   0.80285   0.97027   0.00000  Uiso   1.00
C339   C     0.37425   0.80285   0.03315   0.00000  Uiso   1.00
C340   C     0.37425   0.81636   0.06413   0.00000  Uiso   1.00
C341   C     0.37425   0.82940   0.03154   0.00000  Uiso   1.00
C342   C     0.37425   0.82940   0.97188   0.00000  Uiso   1.00
C343   C     0.37423   0.84399   0.95481   0.00000  Uiso   1.00
N57    N     0.37423   0.85328   0.00171   0.00000  Uiso   1.00
C344   C     0.37424   0.84399   0.04861   0.00000  Uiso   1.00
N58    N     0.37423   0.84827   0.10487   0.00000  Uiso   1.00
C345   C     0.37422   0.86242   0.12188   0.00000  Uiso   1.00
N59    N     0.37420   0.87422   0.08494   0.00000  Uiso   1.00
C346   C     0.37419   0.88602   0.12187   0.00000  Uiso   1.00
C347   C     0.37419   0.88172   0.17988   0.00000  Uiso   1.00
C348   C     0.37421   0.86671   0.17989   0.00000  Uiso   1.00
N60    N     0.37416   0.89516   0.00171   0.00000  Uiso   1.00
C349   C     0.37415   0.90445   0.04861   0.00000  Uiso   1.00
N61    N     0.37416   0.90017   0.10487   0.00000  Uiso   1.00
C350   C     0.37412   0.91904   0.03155   0.00000  Uiso   1.00
C351   C     0.37412   0.91904   0.97187   0.00000  Uiso   1.00
C352   C     0.37414   0.90445   0.95481   0.00000  Uiso   1.00
C353   C     0.37422   0.85850   0.23172   0.00000  Uiso   1.00
C354   C     0.37421   0.86629   0.28539   0.00000  Uiso   1.00
C355   C     0.37419   0.88214   0.28538   0.00000  Uiso   1.00
C356   C     0.37418   0.88993   0.23170   0.00000  Uiso   1.00
C357   C     0.37409   0.93208   0.93924   0.00000  Uiso   1.00
C358   C     0.37406   0.94558   0.97022   0.00000  Uiso   1.00
C359   C     0.37407   0.94558   0.03322   0.00000  Uiso   1.00
C360   C     0.37409   0.93208   0.06419   0.00000  Uiso   1.00
N62    N     0.37420   0.87422   0.91848   0.00000  Uiso   1.00
C361   C     0.37418   0.88602   0.88154   0.00000  Uiso   1.00
N63    N     0.37415   0.90017   0.89855   0.00000  Uiso   1.00
C362   C     0.37419   0.88173   0.82353   0.00000  Uiso   1.00
C363   C     0.37420   0.86672   0.82353   0.00000  Uiso   1.00
C364   C     0.37421   0.86242   0.88154   0.00000  Uiso   1.00
C365   C     0.37421   0.85851   0.77171   0.00000  Uiso   1.00
C366   C     0.37420   0.86630   0.71803   0.00000  Uiso   1.00
C367   C     0.37418   0.88215   0.71803   0.00000  Uiso   1.00
C368   C     0.37417   0.88994   0.77170   0.00000  Uiso   1.00
N64    N     0.37423   0.84827   0.89855   0.00000  Uiso   1.00
H113   H     0.37424   0.81668   0.89171   0.00000  Uiso   1.00
H114   H     0.37425   0.81668   0.11171   0.00000  Uiso   1.00
H115   H     0.37423   0.84653   0.23044   0.00000  Uiso   1.00
H116   H     0.37417   0.90190   0.23042   0.00000  Uiso   1.00
H117   H     0.37409   0.93176   0.89167   0.00000  Uiso   1.00
H118   H     0.37409   0.93175   0.11176   0.00000  Uiso   1.00
H119   H     0.37422   0.84654   0.77299   0.00000  Uiso   1.00
H120   H     0.37416   0.90191   0.77299   0.00000  Uiso   1.00
C369   C     0.37420   0.85865   0.66433   0.00000  Uiso   1.00
C370   C     0.37419   0.86663   0.61183   0.00000  Uiso   1.00
C371   C     0.37418   0.88182   0.61182   0.00000  Uiso   1.00
C372   C     0.37417   0.88979   0.66432   0.00000  Uiso   1.00
C373   C     0.37424   0.78938   0.93979   0.00000  Uiso   1.00
C374   C     0.37424   0.77605   0.97070   0.00000  Uiso   1.00
C375   C     0.37424   0.77605   0.03272   0.00000  Uiso   1.00
C376   C     0.37425   0.78938   0.06362   0.00000  Uiso   1.00
C377   C     0.37421   0.85865   0.33910   0.00000  Uiso   1.00
C378   C     0.37420   0.86663   0.39160   0.00000  Uiso   1.00
C379   C     0.37418   0.88181   0.39159   0.00000  Uiso   1.00
C380   C     0.37418   0.88979   0.33909   0.00000  Uiso   1.00
C381   C     0.37404   0.95910   0.93983   0.00000  Uiso   1.00
C382   C     0.37402   0.97230   0.97155   0.00000  Uiso   1.00
C383   C     0.37402   0.97230   0.03191   0.00000  Uiso   1.00
C384   C     0.37404   0.95909   0.06362   0.00000  Uiso   1.00
H121   H     0.37421   0.84669   0.66316   0.00000  Uiso   1.00
O57    O     0.37420   0.85991   0.55736   0.00000  Uiso   1.00
O58    O     0.37417   0.88853   0.55735   0.00000  Uiso   1.00
H122   H     0.37416   0.90176   0.66314   0.00000  Uiso   1.00
H123   H     0.37424   0.78920   0.89220   0.00000  Uiso   1.00
O59    O     0.37423   0.76262   0.94058   0.00000  Uiso   1.00
O60    O     0.37424   0.76262   0.06283   0.00000  Uiso   1.00
H124   H     0.37426   0.78919   0.11121   0.00000  Uiso   1.00
H125   H     0.37422   0.84668   0.34028   0.00000  Uiso   1.00
O61    O     0.37420   0.85991   0.44607   0.00000  Uiso   1.00
O62    O     0.37417   0.88853   0.44605   0.00000  Uiso   1.00
H126   H     0.37417   0.90176   0.34025   0.00000  Uiso   1.00
H127   H     0.37404   0.95939   0.89226   0.00000  Uiso   1.00
O63    O     0.37400   0.98600   0.94485   0.00000  Uiso   1.00
O64    O     0.37400   0.98600   0.05863   0.00000  Uiso   1.00
H128   H     0.37404   0.95938   0.11119   0.00000  Uiso   1.00
Ni8    Ni    0.37420   0.87422   0.00171   0.00000  Uiso   1.00
C385   C     0.11007   0.62584   0.77245   0.00000  Uiso   1.00
C386   C     0.11786   0.62583   0.71877   0.00000  Uiso   1.00
C387   C     0.13371   0.62581   0.71877   0.00000  Uiso   1.00
C388   C     0.14150   0.62580   0.77244   0.00000  Uiso   1.00
C389   C     0.13329   0.62580   0.82427   0.00000  Uiso   1.00
C390   C     0.11828   0.62582   0.82427   0.00000  Uiso   1.00
C391   C     0.11398   0.62583   0.88228   0.00000  Uiso   1.00
N65    N     0.12578   0.62582   0.91922   0.00000  Uiso   1.00
C392   C     0.13758   0.62580   0.88228   0.00000  Uiso   1.00
N66    N     0.15173   0.62578   0.89929   0.00000  Uiso   1.00
C393   C     0.15601   0.62577   0.95555   0.00000  Uiso   1.00
N67    N     0.14672   0.62578   0.00245   0.00000  Uiso   1.00
C394   C     0.15601   0.62578   0.04935   0.00000  Uiso   1.00
C395   C     0.17060   0.62576   0.03229   0.00000  Uiso   1.00
C396   C     0.17060   0.62576   0.97262   0.00000  Uiso   1.00
N68    N     0.12578   0.62582   0.08568   0.00000  Uiso   1.00
C397   C     0.13758   0.62581   0.12261   0.00000  Uiso   1.00
N69    N     0.15173   0.62579   0.10561   0.00000  Uiso   1.00
C398   C     0.13328   0.62581   0.18062   0.00000  Uiso   1.00
C399   C     0.11827   0.62583   0.18062   0.00000  Uiso   1.00
C400   C     0.11398   0.62584   0.12261   0.00000  Uiso   1.00
C401   C     0.18364   0.62576   0.94003   0.00000  Uiso   1.00
C402   C     0.19715   0.62575   0.97102   0.00000  Uiso   1.00
C403   C     0.19715   0.62576   0.03390   0.00000  Uiso   1.00
C404   C     0.18364   0.62576   0.06488   0.00000  Uiso   1.00
C405   C     0.11006   0.62584   0.23245   0.00000  Uiso   1.00
C406   C     0.11785   0.62583   0.28612   0.00000  Uiso   1.00
C407   C     0.13370   0.62582   0.28612   0.00000  Uiso   1.00
C408   C     0.14149   0.62580   0.23245   0.00000  Uiso   1.00
N70    N     0.10484   0.62585   0.00245   0.00000  Uiso   1.00
C409   C     0.09555   0.62587   0.04935   0.00000  Uiso   1.00
N71    N     0.09983   0.62586   0.10561   0.00000  Uiso   1.00
C410   C     0.08096   0.62590   0.03228   0.00000  Uiso   1.00
C411   C     0.08096   0.62590   0.97260   0.00000  Uiso   1.00
C412   C     0.09555   0.62587   0.95554   0.00000  Uiso   1.00
C413   C     0.06792   0.62592   0.93996   0.00000  Uiso   1.00
C414   C     0.05442   0.62594   0.97092   0.00000  Uiso   1.00
C415   C     0.05442   0.62594   0.03392   0.00000  Uiso   1.00
C416   C     0.06792   0.62592   0.06491   0.00000  Uiso   1.00
N72    N     0.09983   0.62586   0.89928   0.00000  Uiso   1.00
H129   H     0.09810   0.62585   0.77374   0.00000  Uiso   1.00
H130   H     0.15347   0.62578   0.77372   0.00000  Uiso   1.00
H131   H     0.18332   0.62576   0.89246   0.00000  Uiso   1.00
H132   H     0.18332   0.62577   0.11245   0.00000  Uiso   1.00
H133   H     0.09809   0.62585   0.23117   0.00000  Uiso   1.00
H134   H     0.15346   0.62579   0.23117   0.00000  Uiso   1.00
H135   H     0.06825   0.62592   0.89238   0.00000  Uiso   1.00
H136   H     0.06824   0.62592   0.11248   0.00000  Uiso   1.00
C417   C     0.04091   0.62597   0.94052   0.00000  Uiso   1.00
C418   C     0.02770   0.62599   0.97222   0.00000  Uiso   1.00
C419   C     0.02770   0.62599   0.03258   0.00000  Uiso   1.00
C420   C     0.04090   0.62597   0.06430   0.00000  Uiso   1.00
C421   C     0.11021   0.62584   0.66507   0.00000  Uiso   1.00
C422   C     0.11819   0.62583   0.61257   0.00000  Uiso   1.00
C423   C     0.13337   0.62581   0.61256   0.00000  Uiso   1.00
C424   C     0.14135   0.62580   0.66506   0.00000  Uiso   1.00
C425   C     0.21062   0.62575   0.94054   0.00000  Uiso   1.00
C426   C     0.22395   0.62576   0.97145   0.00000  Uiso   1.00
C427   C     0.22395   0.62577   0.03347   0.00000  Uiso   1.00
C428   C     0.21062   0.62576   0.06438   0.00000  Uiso   1.00
C429   C     0.11021   0.62584   0.33983   0.00000  Uiso   1.00
C430   C     0.11818   0.62583   0.39233   0.00000  Uiso   1.00
C431   C     0.13337   0.62582   0.39233   0.00000  Uiso   1.00
C432   C     0.14135   0.62581   0.33983   0.00000  Uiso   1.00
H137   H     0.04062   0.62596   0.89295   0.00000  Uiso   1.00
O65    O     0.01400   0.62600   0.94550   0.00000  Uiso   1.00
O66    O     0.01399   0.62601   0.05928   0.00000  Uiso   1.00
H138   H     0.04061   0.62597   0.11187   0.00000  Uiso   1.00
H139   H     0.09824   0.62585   0.66390   0.00000  Uiso   1.00
O67    O     0.11147   0.62584   0.55810   0.00000  Uiso   1.00
O68    O     0.14009   0.62581   0.55809   0.00000  Uiso   1.00
H140   H     0.15332   0.62579   0.66388   0.00000  Uiso   1.00
H141   H     0.21081   0.62575   0.89295   0.00000  Uiso   1.00
O69    O     0.23738   0.62577   0.94133   0.00000  Uiso   1.00
O70    O     0.23738   0.62577   0.06359   0.00000  Uiso   1.00
H142   H     0.21080   0.62577   0.11197   0.00000  Uiso   1.00
H143   H     0.09824   0.62585   0.34101   0.00000  Uiso   1.00
O71    O     0.11146   0.62584   0.44680   0.00000  Uiso   1.00
O72    O     0.14009   0.62581   0.44680   0.00000  Uiso   1.00
H144   H     0.15331   0.62580   0.34101   0.00000  Uiso   1.00
Ni9    Ni    0.12578   0.62582   0.00245   0.00000  Uiso   1.00
C433   C     0.37426   0.18364   0.06418   0.00000  Uiso   1.00
C434   C     0.37426   0.19715   0.03319   0.00000  Uiso   1.00
C435   C     0.37425   0.19715   0.97031   0.00000  Uiso   1.00
C436   C     0.37425   0.18364   0.93933   0.00000  Uiso   1.00
C437   C     0.37425   0.17060   0.97193   0.00000  Uiso   1.00
C438   C     0.37425   0.17060   0.03159   0.00000  Uiso   1.00
C439   C     0.37424   0.15601   0.04866   0.00000  Uiso   1.00
N73    N     0.37423   0.14672   0.00177   0.00000  Uiso   1.00
C440   C     0.37424   0.15601   0.95486   0.00000  Uiso   1.00
N74    N     0.37423   0.15173   0.89860   0.00000  Uiso   1.00
C441   C     0.37422   0.13758   0.88160   0.00000  Uiso   1.00
N75    N     0.37420   0.12578   0.91854   0.00000  Uiso   1.00
C442   C     0.37419   0.11398   0.88160   0.00000  Uiso   1.00
C443   C     0.37419   0.11828   0.82359   0.00000  Uiso   1.00
C444   C     0.37421   0.13329   0.82359   0.00000  Uiso   1.00
N76    N     0.37417   0.10484   0.00177   0.00000  Uiso   1.00
C445   C     0.37415   0.09555   0.95487   0.00000  Uiso   1.00
N77    N     0.37416   0.09983   0.89861   0.00000  Uiso   1.00
C446   C     0.37412   0.08096   0.97193   0.00000  Uiso   1.00
C447   C     0.37412   0.08096   0.03162   0.00000  Uiso   1.00
C448   C     0.37415   0.09555   0.04868   0.00000  Uiso   1.00
C449   C     0.37422   0.14150   0.77176   0.00000  Uiso   1.00
C450   C     0.37421   0.13371   0.71809   0.00000  Uiso   1.00
C451   C     0.37419   0.11786   0.71810   0.00000  Uiso   1.00
C452   C     0.37418   0.11007   0.77177   0.00000  Uiso   1.00
C453   C     0.37409   0.06792   0.06425   0.00000  Uiso   1.00
C454   C     0.37407   0.05442   0.03327   0.00000  Uiso   1.00
C455   C     0.37407   0.05442   0.97027   0.00000  Uiso   1.00
C456   C     0.37409   0.06792   0.93930   0.00000  Uiso   1.00
N78    N     0.37420   0.12578   0.08500   0.00000  Uiso   1.00
C457   C     0.37419   0.11398   0.12194   0.00000  Uiso   1.00
N79    N     0.37416   0.09983   0.10493   0.00000  Uiso   1.00
C458   C     0.37420   0.11827   0.17994   0.00000  Uiso   1.00
C459   C     0.37422   0.13329   0.17994   0.00000  Uiso   1.00
C460   C     0.37422   0.13758   0.12193   0.00000  Uiso   1.00
C461   C     0.37422   0.14150   0.23177   0.00000  Uiso   1.00
C462   C     0.37421   0.13370   0.28544   0.00000  Uiso   1.00
C463   C     0.37419   0.11785   0.28544   0.00000  Uiso   1.00
C464   C     0.37419   0.11006   0.23177   0.00000  Uiso   1.00
N80    N     0.37424   0.15173   0.10492   0.00000  Uiso   1.00
H145   H     0.37426   0.18332   0.11175   0.00000  Uiso   1.00
H146   H     0.37425   0.18332   0.89176   0.00000  Uiso   1.00
H147   H     0.37423   0.15346   0.77304   0.00000  Uiso   1.00
H148   H     0.37417   0.09810   0.77306   0.00000  Uiso   1.00
H149   H     0.37410   0.06824   0.11182   0.00000  Uiso   1.00
H150   H     0.37409   0.06825   0.89173   0.00000  Uiso   1.00
H151   H     0.37423   0.15346   0.23048   0.00000  Uiso   1.00
H152   H     0.37417   0.09810   0.23049   0.00000  Uiso   1.00
C465   C     0.37421   0.14135   0.33915   0.00000  Uiso   1.00
C466   C     0.37420   0.13337   0.39165   0.00000  Uiso   1.00
C467   C     0.37419   0.11819   0.39165   0.00000  Uiso   1.00
C468   C     0.37418   0.11021   0.33916   0.00000  Uiso   1.00
C469   C     0.37425   0.21062   0.06367   0.00000  Uiso   1.00
C470   C     0.37425   0.22395   0.03275   0.00000  Uiso   1.00
C471   C     0.37424   0.22395   0.97073   0.00000  Uiso   1.00
C472   C     0.37425   0.21062   0.93983   0.00000  Uiso   1.00
C473   C     0.37421   0.14135   0.66438   0.00000  Uiso   1.00
C474   C     0.37420   0.13337   0.61188   0.00000  Uiso   1.00
C475   C     0.37418   0.11819   0.61189   0.00000  Uiso   1.00
C476   C     0.37418   0.11021   0.66439   0.00000  Uiso   1.00
C477   C     0.37405   0.04091   0.06366   0.00000  Uiso   1.00
C478   C     0.37402   0.02770   0.03194   0.00000  Uiso   1.00
C479   C     0.37402   0.02770   0.97158   0.00000  Uiso   1.00
C480   C     0.37404   0.04091   0.93987   0.00000  Uiso   1.00
H153   H     0.37422   0.15331   0.34032   0.00000  Uiso   1.00
O73    O     0.37420   0.14009   0.44612   0.00000  Uiso   1.00
O74    O     0.37417   0.11147   0.44612   0.00000  Uiso   1.00
H154   H     0.37417   0.09824   0.34033   0.00000  Uiso   1.00
H155   H     0.37426   0.21081   0.11126   0.00000  Uiso   1.00
O75    O     0.37424   0.23738   0.06286   0.00000  Uiso   1.00
O76    O     0.37423   0.23738   0.94061   0.00000  Uiso   1.00
H156   H     0.37425   0.21080   0.89224   0.00000  Uiso   1.00
H157   H     0.37422   0.15332   0.66319   0.00000  Uiso   1.00
O77    O     0.37420   0.14009   0.55741   0.00000  Uiso   1.00
O78    O     0.37417   0.11147   0.55742   0.00000  Uiso   1.00
H158   H     0.37417   0.09824   0.66322   0.00000  Uiso   1.00
H159   H     0.37405   0.04061   0.11123   0.00000  Uiso   1.00
O79    O     0.37400   0.01400   0.05865   0.00000  Uiso   1.00
O80    O     0.37400   0.01400   0.94486   0.00000  Uiso   1.00
H160   H     0.37404   0.04062   0.89230   0.00000  Uiso   1.00
Ni10   Ni    0.37420   0.12578   0.00177   0.00000  Uiso   1.00
C481   C     0.88993   0.37417   0.23169   0.00000  Uiso   1.00
C482   C     0.88214   0.37418   0.28536   0.00000  Uiso   1.00
C483   C     0.86629   0.37420   0.28537   0.00000  Uiso   1.00
C484   C     0.85850   0.37421   0.23169   0.00000  Uiso   1.00
C485   C     0.86671   0.37420   0.17986   0.00000  Uiso   1.00
C486   C     0.88172   0.37418   0.17986   0.00000  Uiso   1.00
C487   C     0.88602   0.37418   0.12185   0.00000  Uiso   1.00
N81    N     0.87422   0.37419   0.08491   0.00000  Uiso   1.00
C488   C     0.86242   0.37421   0.12185   0.00000  Uiso   1.00
N82    N     0.84827   0.37422   0.10485   0.00000  Uiso   1.00
C489   C     0.84399   0.37423   0.04859   0.00000  Uiso   1.00
N83    N     0.85328   0.37422   0.00169   0.00000  Uiso   1.00
C490   C     0.84399   0.37422   0.95478   0.00000  Uiso   1.00
C491   C     0.82940   0.37424   0.97185   0.00000  Uiso   1.00
C492   C     0.82940   0.37424   0.03151   0.00000  Uiso   1.00
N84    N     0.87422   0.37419   0.91846   0.00000  Uiso   1.00
C493   C     0.86242   0.37420   0.88152   0.00000  Uiso   1.00
N85    N     0.84827   0.37422   0.89853   0.00000  Uiso   1.00
C494   C     0.86672   0.37419   0.82351   0.00000  Uiso   1.00
C495   C     0.88173   0.37418   0.82351   0.00000  Uiso   1.00
C496   C     0.88602   0.37417   0.88152   0.00000  Uiso   1.00
C497   C     0.81636   0.37425   0.06410   0.00000  Uiso   1.00
C498   C     0.80285   0.37424   0.03312   0.00000  Uiso   1.00
C499   C     0.80285   0.37424   0.97024   0.00000  Uiso   1.00
C500   C     0.81636   0.37424   0.93926   0.00000  Uiso   1.00
C501   C     0.88994   0.37416   0.77169   0.00000  Uiso   1.00
C502   C     0.88215   0.37417   0.71801   0.00000  Uiso   1.00
C503   C     0.86630   0.37419   0.71801   0.00000  Uiso   1.00
C504   C     0.85851   0.37420   0.77168   0.00000  Uiso   1.00
N86    N     0.89516   0.37415   0.00169   0.00000  Uiso   1.00
C505   C     0.90445   0.37413   0.95479   0.00000  Uiso   1.00
N87    N     0.90017   0.37414   0.89853   0.00000  Uiso   1.00
C506   C     0.91904   0.37411   0.97186   0.00000  Uiso   1.00
C507   C     0.91904   0.37411   0.03154   0.00000  Uiso   1.00
C508   C     0.90445   0.37414   0.04859   0.00000  Uiso   1.00
C509   C     0.93208   0.37408   0.06418   0.00000  Uiso   1.00
C510   C     0.94558   0.37406   0.03321   0.00000  Uiso   1.00
C511   C     0.94558   0.37405   0.97021   0.00000  Uiso   1.00
C512   C     0.93208   0.37408   0.93923   0.00000  Uiso   1.00
N88    N     0.90017   0.37415   0.10485   0.00000  Uiso   1.00
H161   H     0.90190   0.37416   0.23040   0.00000  Uiso   1.00
H162   H     0.84653   0.37422   0.23041   0.00000  Uiso   1.00
H163   H     0.81668   0.37425   0.11168   0.00000  Uiso   1.00
H164   H     0.81668   0.37424   0.89168   0.00000  Uiso   1.00
H165   H     0.90191   0.37415   0.77297   0.00000  Uiso   1.00
H166   H     0.84654   0.37421   0.77297   0.00000  Uiso   1.00
H167   H     0.93175   0.37408   0.11175   0.00000  Uiso   1.00
H168   H     0.93176   0.37408   0.89166   0.00000  Uiso   1.00
C513   C     0.95909   0.37403   0.06361   0.00000  Uiso   1.00
C514   C     0.97230   0.37401   0.03191   0.00000  Uiso   1.00
C515   C     0.97230   0.37401   0.97155   0.00000  Uiso   1.00
C516   C     0.95910   0.37403   0.93983   0.00000  Uiso   1.00
C517   C     0.88979   0.37417   0.33907   0.00000  Uiso   1.00
C518   C     0.88181   0.37417   0.39157   0.00000  Uiso   1.00
C519   C     0.86663   0.37419   0.39157   0.00000  Uiso   1.00
C520   C     0.85865   0.37420   0.33908   0.00000  Uiso   1.00
C521   C     0.78938   0.37424   0.06359   0.00000  Uiso   1.00
C522   C     0.77605   0.37424   0.03269   0.00000  Uiso   1.00
C523   C     0.77605   0.37423   0.97066   0.00000  Uiso   1.00
C524   C     0.78938   0.37424   0.93976   0.00000  Uiso   1.00
C525   C     0.88979   0.37416   0.66430   0.00000  Uiso   1.00
C526   C     0.88182   0.37417   0.61180   0.00000  Uiso   1.00
C527   C     0.86663   0.37418   0.61180   0.00000  Uiso   1.00
C528   C     0.85865   0.37419   0.66430   0.00000  Uiso   1.00
H169   H     0.95938   0.37403   0.11118   0.00000  Uiso   1.00
O81    O     0.98600   0.37399   0.05863   0.00000  Uiso   1.00
O82    O     0.98600   0.37399   0.94485   0.00000  Uiso   1.00
H170   H     0.95939   0.37403   0.89226   0.00000  Uiso   1.00
H171   H     0.90176   0.37416   0.34024   0.00000  Uiso   1.00
O83    O     0.88853   0.37416   0.44603   0.00000  Uiso   1.00
O84    O     0.85991   0.37419   0.44604   0.00000  Uiso   1.00
H172   H     0.84668   0.37421   0.34026   0.00000  Uiso   1.00
H173   H     0.78919   0.37425   0.11118   0.00000  Uiso   1.00
O85    O     0.76262   0.37423   0.06280   0.00000  Uiso   1.00
O86    O     0.76262   0.37422   0.94055   0.00000  Uiso   1.00
H174   H     0.78920   0.37423   0.89217   0.00000  Uiso   1.00
H175   H     0.90176   0.37415   0.66313   0.00000  Uiso   1.00
O87    O     0.88854   0.37416   0.55733   0.00000  Uiso   1.00
O88    O     0.85991   0.37419   0.55734   0.00000  Uiso   1.00
H176   H     0.84669   0.37421   0.66313   0.00000  Uiso   1.00
Ni11   Ni    0.87422   0.37419   0.00169   0.00000  Uiso   1.00
C529   C     0.62574   0.81636   0.93993   0.00000  Uiso   1.00
C530   C     0.62574   0.80285   0.97092   0.00000  Uiso   1.00
C531   C     0.62575   0.80285   0.03380   0.00000  Uiso   1.00
C532   C     0.62575   0.81636   0.06478   0.00000  Uiso   1.00
C533   C     0.62575   0.82940   0.03218   0.00000  Uiso   1.00
C534   C     0.62575   0.82940   0.97252   0.00000  Uiso   1.00
C535   C     0.62576   0.84399   0.95545   0.00000  Uiso   1.00
N89    N     0.62577   0.85328   0.00235   0.00000  Uiso   1.00
C536   C     0.62576   0.84399   0.04925   0.00000  Uiso   1.00
N90    N     0.62577   0.84827   0.10551   0.00000  Uiso   1.00
C537   C     0.62579   0.86242   0.12251   0.00000  Uiso   1.00
N91    N     0.62580   0.87422   0.08557   0.00000  Uiso   1.00
C538   C     0.62582   0.88602   0.12251   0.00000  Uiso   1.00
C539   C     0.62581   0.88172   0.18052   0.00000  Uiso   1.00
C540   C     0.62579   0.86671   0.18052   0.00000  Uiso   1.00
N92    N     0.62584   0.89516   0.00234   0.00000  Uiso   1.00
C541   C     0.62585   0.90445   0.04924   0.00000  Uiso   1.00
N93    N     0.62584   0.90017   0.10550   0.00000  Uiso   1.00
C542   C     0.62588   0.91904   0.03218   0.00000  Uiso   1.00
C543   C     0.62588   0.91904   0.97250   0.00000  Uiso   1.00
C544   C     0.62585   0.90445   0.95544   0.00000  Uiso   1.00
C545   C     0.62579   0.85850   0.23235   0.00000  Uiso   1.00
C546   C     0.62580   0.86629   0.28602   0.00000  Uiso   1.00
C547   C     0.62581   0.88214   0.28602   0.00000  Uiso   1.00
C548   C     0.62582   0.88993   0.23234   0.00000  Uiso   1.00
C549   C     0.62590   0.93208   0.93987   0.00000  Uiso   1.00
C550   C     0.62593   0.94558   0.97085   0.00000  Uiso   1.00
C551   C     0.62593   0.94558   0.03385   0.00000  Uiso   1.00
C552   C     0.62591   0.93208   0.06482   0.00000  Uiso   1.00
N94    N     0.62580   0.87422   0.91911   0.00000  Uiso   1.00
C553   C     0.62581   0.88602   0.88218   0.00000  Uiso   1.00
N95    N     0.62584   0.90017   0.89918   0.00000  Uiso   1.00
C554   C     0.62581   0.88173   0.82417   0.00000  Uiso   1.00
C555   C     0.62579   0.86671   0.82417   0.00000  Uiso   1.00
C556   C     0.62578   0.86242   0.88218   0.00000  Uiso   1.00
C557   C     0.62578   0.85850   0.77234   0.00000  Uiso   1.00
C558   C     0.62579   0.86630   0.71867   0.00000  Uiso   1.00
C559   C     0.62581   0.88215   0.71867   0.00000  Uiso   1.00
C560   C     0.62582   0.88994   0.77234   0.00000  Uiso   1.00
N96    N     0.62577   0.84827   0.89919   0.00000  Uiso   1.00
H177   H     0.62574   0.81668   0.89236   0.00000  Uiso   1.00
H178   H     0.62575   0.81668   0.11235   0.00000  Uiso   1.00
H179   H     0.62577   0.84653   0.23107   0.00000  Uiso   1.00
H180   H     0.62584   0.90190   0.23105   0.00000  Uiso   1.00
H181   H     0.62590   0.93176   0.89230   0.00000  Uiso   1.00
H182   H     0.62591   0.93175   0.11239   0.00000  Uiso   1.00
H183   H     0.62577   0.84654   0.77363   0.00000  Uiso   1.00
H184   H     0.62583   0.90190   0.77362   0.00000  Uiso   1.00
C561   C     0.62579   0.85865   0.66496   0.00000  Uiso   1.00
C562   C     0.62580   0.86663   0.61246   0.00000  Uiso   1.00
C563   C     0.62581   0.88181   0.61246   0.00000  Uiso   1.00
C564   C     0.62582   0.88979   0.66496   0.00000  Uiso   1.00
C565   C     0.62574   0.78938   0.94044   0.00000  Uiso   1.00
C566   C     0.62575   0.77605   0.97135   0.00000  Uiso   1.00
C567   C     0.62576   0.77605   0.03337   0.00000  Uiso   1.00
C568   C     0.62575   0.78938   0.06428   0.00000  Uiso   1.00
C569   C     0.62579   0.85865   0.33974   0.00000  Uiso   1.00
C570   C     0.62580   0.86663   0.39223   0.00000  Uiso   1.00
C571   C     0.62582   0.88181   0.39222   0.00000  Uiso   1.00
C572   C     0.62582   0.88979   0.33972   0.00000  Uiso   1.00
C573   C     0.62595   0.95909   0.94046   0.00000  Uiso   1.00
C574   C     0.62597   0.97230   0.97218   0.00000  Uiso   1.00
C575   C     0.62598   0.97230   0.03254   0.00000  Uiso   1.00
C576   C     0.62596   0.95909   0.06425   0.00000  Uiso   1.00
H185   H     0.62578   0.84669   0.66379   0.00000  Uiso   1.00
O89    O     0.62579   0.85991   0.55799   0.00000  Uiso   1.00
O90    O     0.62582   0.88853   0.55799   0.00000  Uiso   1.00
H186   H     0.62583   0.90176   0.66378   0.00000  Uiso   1.00
H187   H     0.62574   0.78919   0.89285   0.00000  Uiso   1.00
O91    O     0.62576   0.76262   0.94124   0.00000  Uiso   1.00
O92    O     0.62577   0.76262   0.06349   0.00000  Uiso   1.00
H188   H     0.62575   0.78919   0.11187   0.00000  Uiso   1.00
H189   H     0.62578   0.84668   0.34092   0.00000  Uiso   1.00
O93    O     0.62579   0.85991   0.44670   0.00000  Uiso   1.00
O94    O     0.62582   0.88853   0.44669   0.00000  Uiso   1.00
H190   H     0.62583   0.90176   0.34089   0.00000  Uiso   1.00
H191   H     0.62595   0.95939   0.89289   0.00000  Uiso   1.00
O95    O     0.62599   0.98600   0.94547   0.00000  Uiso   1.00
O96    O     0.62600   0.98600   0.05926   0.00000  Uiso   1.00
H192   H     0.62596   0.95938   0.11182   0.00000  Uiso   1.00
Ni12   Ni    0.62580   0.87422   0.00234   0.00000  Uiso   1.00
Cu1    Cu    0.00000   0.37399   0.00175   0.00000  Uiso   1.00
Cu2    Cu    0.62600   1.00000   0.00238   0.00000  Uiso   1.00
Cu3    Cu    1.00000   0.62601   0.00238   0.00000  Uiso   1.00
Cu4    Cu    0.37400   0.00000   0.00175   0.00000  Uiso   1.00
Zn1    Zn    0.25000   0.37423   0.00178   0.00000  Uiso   1.00
Zn2    Zn    0.62577   0.25000   0.00242   0.00000  Uiso   1.00
Zn3    Zn    0.75000   0.62577   0.00233   0.00000  Uiso   1.00
Zn4    Zn    0.37423   0.75000   0.00171   0.00000  Uiso   1.00
Zn5    Zn    0.25000   0.62577   0.00246   0.00000  Uiso   1.00
Zn6    Zn    0.37423   0.25000   0.00173   0.00000  Uiso   1.00
Zn7    Zn    0.75000   0.37422   0.00167   0.00000  Uiso   1.00
Zn8    Zn    0.62577   0.75000   0.00237   0.00000  Uiso   1.00
Cu5    Cu    0.12578   0.37418   0.50180   0.00000  Uiso   1.00
Cu6    Cu    0.62581   0.12578   0.50242   0.00000  Uiso   1.00
Cu7    Cu    0.87422   0.62581   0.50232   0.00000  Uiso   1.00
Cu8    Cu    0.37418   0.87422   0.50171   0.00000  Uiso   1.00
Cu9    Cu    0.12578   0.62582   0.50245   0.00000  Uiso   1.00
Cu10   Cu    0.37418   0.12578   0.50177   0.00000  Uiso   1.00
Cu11   Cu    0.87422   0.37417   0.50169   0.00000  Uiso   1.00
Cu12   Cu    0.62580   0.87422   0.50234   0.00000  Uiso   1.00
Cu13   Cu    0.37421   0.50000   0.00165   0.00000  Uiso   1.00
Cu14   Cu    0.50000   0.37422   0.00165   0.00000  Uiso   1.00
Cu15   Cu    0.62579   0.50000   0.00238   0.00000  Uiso   1.00
Cu16   Cu    0.50000   0.62578   0.00238   0.00000  Uiso   1.00
loop_
_geom_bond_atom_site_label_1
_geom_bond_atom_site_label_2
_geom_bond_distance
_geom_bond_site_symmetry_2
_ccdc_geom_bond_type
C1     C2      1.411   .     A
C1     C6      1.394   .     A
C1     H1      1.084   .     S
C2     C3      1.435   .     A
C2     C37     1.405   .     A
C3     C4      1.411   .     A
C3     C40     1.405   .     A
C4     C5      1.394   .     A
C4     H2      1.084   .     S
C5     C6      1.359   .     A
C5     C8      1.377   .     A
C6     C7      1.377   .     A
C7     N1      1.359   .     A
C7     N8      1.338   .     A
N1     C8      1.359   .     A
N1     Ni1     1.895   .     S
C8     N2      1.338   .     A
N2     C9      1.338   .     A
C9     N3      1.359   .     A
C9     C12     1.377   .     A
N3     C10     1.359   .     A
N3     Ni1     1.895   .     S
C10    C11     1.377   .     A
C10    N5      1.338   .     A
C11    C12     1.359   .     A
C11    C20     1.394   .     A
C12    C17     1.394   .     A
N4     C13     1.359   .     A
N4     C16     1.359   .     A
N4     Ni1     1.895   .     S
C13    N5      1.338   .     A
C13    C14     1.377   .     A
C14    C15     1.358   .     A
C14    C24     1.394   .     A
C15    C16     1.377   .     A
C15    C21     1.394   .     A
C16    N7      1.338   .     A
C17    C18     1.411   .     A
C17    H3      1.084   .     S
C18    C19     1.435   .     A
C18    C41     1.405   .     A
C19    C20     1.411   .     A
C19    C44     1.405   .     A
C20    H4      1.084   .     S
C21    C22     1.412   .     A
C21    H5      1.084   .     S
C22    C23     1.432   .     A
C22    C45     1.403   .     A
C23    C24     1.411   .     A
C23    C48     1.403   .     A
C24    H6      1.084   .     S
N6     C25     1.359   .     A
N6     C28     1.359   .     A
N6     Ni1     1.895   .     S
C25    N7      1.338   .     A
C25    C26     1.377   .     A
C26    C27     1.358   .     A
C26    C32     1.394   .     A
C27    C28     1.377   .     A
C27    C29     1.394   .     A
C28    N8      1.338   .     A
C29    C30     1.411   .     A
C29    H7      1.084   .     S
C30    C31     1.432   .     A
C30    C33     1.403   .     A
C31    C32     1.412   .     A
C31    C36     1.403   .     A
C32    H8      1.084   .     S
C33    C34     1.397   .     A
C33    H9      1.084   .     S
C34    C35     1.412   .     A
C34    O1      1.395   .     S
C35    C36     1.397   .     A
C35    O2      1.395   .     S
C36    H10     1.084   .     S
C37    C38     1.396   .     A
C37    H11     1.083   .     S
C38    C39     1.374   .     A
C38    O3      1.381   .     S
C39    C40     1.396   .     A
C39    O4      1.381   .     S
C40    H12     1.083   .     S
C41    C42     1.396   .     A
C41    H13     1.083   .     S
C42    C43     1.374   .     A
C42    O5      1.381   .     S
C43    C44     1.396   .     A
C43    O6      1.381   .     S
C44    H14     1.083   .     S
C45    C46     1.397   .     A
C45    H15     1.084   .     S
C46    C47     1.412   .     A
C46    O7      1.395   .     S
C47    C48     1.397   .     A
C47    O8      1.395   .     S
C48    H16     1.084   .     S
O1     Zn1     1.800   .     S
O2     Zn1     1.800   .     S
O3     Cu13    1.812   .     S
O4     Cu13    1.812   .     S
O5     Cu14    1.812   .     S
O6     Cu14    1.812   .     S
O7     Zn6     1.800   .     S
O8     Zn6     1.800   .     S
C49    C50     1.411   .     A
C49    C54     1.394   .     A
C49    H17     1.084   .     S
C50    C51     1.435   .     A
C50    C85     1.405   .     A
C51    C52     1.411   .     A
C51    C88     1.405   .     A
C52    C53     1.394   .     A
C52    H18     1.084   .     S
C53    C54     1.359   .     A
C53    C56     1.377   .     A
C54    C55     1.377   .     A
C55    N9      1.359   .     A
C55    N16     1.338   .     A
N9     C56     1.359   .     A
N9     Ni2     1.895   .     S
C56    N10     1.338   .     A
N10    C57     1.338   .     A
C57    N11     1.359   .     A
C57    C60     1.377   .     A
N11    C58     1.359   .     A
N11    Ni2     1.895   .     S
C58    C59     1.377   .     A
C58    N13     1.338   .     A
C59    C60     1.359   .     A
C59    C68     1.394   .     A
C60    C65     1.394   .     A
N12    C61     1.359   .     A
N12    C64     1.359   .     A
N12    Ni2     1.895   .     S
C61    N13     1.338   .     A
C61    C62     1.377   .     A
C62    C63     1.358   .     A
C62    C72     1.394   .     A
C63    C64     1.377   .     A
C63    C69     1.394   .     A
C64    N15     1.338   .     A
C65    C66     1.411   .     A
C65    H19     1.084   .     S
C66    C67     1.435   .     A
C66    C89     1.405   .     A
C67    C68     1.411   .     A
C67    C92     1.405   .     A
C68    H20     1.084   .     S
C69    C70     1.412   .     A
C69    H21     1.084   .     S
C70    C71     1.432   .     A
C70    C93     1.403   .     A
C71    C72     1.411   .     A
C71    C96     1.403   .     A
C72    H22     1.084   .     S
N14    C73     1.359   .     A
N14    C76     1.359   .     A
N14    Ni2     1.895   .     S
C73    N15     1.338   .     A
C73    C74     1.377   .     A
C74    C75     1.358   .     A
C74    C80     1.394   .     A
C75    C76     1.377   .     A
C75    C77     1.394   .     A
C76    N16     1.338   .     A
C77    C78     1.411   .     A
C77    H23     1.084   .     S
C78    C79     1.432   .     A
C78    C81     1.403   .     A
C79    C80     1.412   .     A
C79    C84     1.403   .     A
C80    H24     1.084   .     S
C81    C82     1.397   .     A
C81    H25     1.084   .     S
C82    C83     1.412   .     A
C82    O9      1.395   .     S
C83    C84     1.397   .     A
C83    O10     1.395   .     S
C84    H26     1.084   .     S
C85    C86     1.396   .     A
C85    H27     1.083   .     S
C86    C87     1.374   .     A
C86    O11     1.381   .     S
C87    C88     1.396   .     A
C87    O12     1.381   .     S
C88    H28     1.083   .     S
C89    C90     1.396   .     A
C89    H29     1.083   .     S
C90    C91     1.374   .     A
C90    O13     1.381   .     S
C91    C92     1.396   .     A
C91    O14     1.381   .     S
C92    H30     1.083   .     S
C93    C94     1.397   .     A
C93    H31     1.084   .     S
C94    C95     1.412   .     A
C94    O15     1.395   .     S
C95    C96     1.397   .     A
C95    O16     1.395   .     S
C96    H32     1.084   .     S
O9     Zn7     1.800   .     S
O10    Zn7     1.800   .     S
O11    Cu15    1.812   .     S
O12    Cu15    1.812   .     S
O13    Cu14    1.812   .     S
O14    Cu14    1.812   .     S
O15    Zn2     1.800   .     S
O16    Zn2     1.800   .     S
C97    C98     1.411   .     A
C97    C102    1.394   .     A
C97    H33     1.084   .     S
C98    C99     1.435   .     A
C98    C133    1.405   .     A
C99    C100    1.411   .     A
C99    C136    1.405   .     A
C100   C101    1.394   .     A
C100   H34     1.084   .     S
C101   C102    1.359   .     A
C101   C104    1.377   .     A
C102   C103    1.377   .     A
C103   N17     1.359   .     A
C103   N24     1.338   .     A
N17    C104    1.359   .     A
N17    Ni3     1.895   .     S
C104   N18     1.338   .     A
N18    C105    1.338   .     A
C105   N19     1.359   .     A
C105   C108    1.377   .     A
N19    C106    1.359   .     A
N19    Ni3     1.895   .     S
C106   C107    1.377   .     A
C106   N21     1.338   .     A
C107   C108    1.359   .     A
C107   C116    1.394   .     A
C108   C113    1.394   .     A
N20    C109    1.359   .     A
N20    C112    1.359   .     A
N20    Ni3     1.895   .     S
C109   N21     1.338   .     A
C109   C110    1.377   .     A
C110   C111    1.358   .     A
C110   C120    1.394   .     A
C111   C112    1.377   .     A
C111   C117    1.394   .     A
C112   N23     1.338   .     A
C113   C114    1.411   .     A
C113   H35     1.084   .     S
C114   C115    1.435   .     A
C114   C137    1.405   .     A
C115   C116    1.411   .     A
C115   C140    1.405   .     A
C116   H36     1.084   .     S
C117   C118    1.412   .     A
C117   H37     1.084   .     S
C118   C119    1.432   .     A
C118   C141    1.403   .     A
C119   C120    1.411   .     A
C119   C144    1.403   .     A
C120   H38     1.084   .     S
N22    C121    1.359   .     A
N22    C124    1.359   .     A
N22    Ni3     1.895   .     S
C121   N23     1.338   .     A
C121   C122    1.377   .     A
C122   C123    1.358   .     A
C122   C128    1.394   .     A
C123   C124    1.377   .     A
C123   C125    1.394   .     A
C124   N24     1.338   .     A
C125   C126    1.411   .     A
C125   H39     1.084   .     S
C126   C127    1.432   .     A
C126   C129    1.403   .     A
C127   C128    1.412   .     A
C127   C132    1.403   .     A
C128   H40     1.084   .     S
C129   C130    1.397   .     A
C129   H41     1.084   .     S
C130   C131    1.412   .     A
C130   O17     1.395   .     S
C131   C132    1.397   .     A
C131   O18     1.395   .     S
C132   H42     1.084   .     S
C133   C134    1.396   .     A
C133   H43     1.083   .     S
C134   C135    1.374   .     A
C134   O19     1.381   .     S
C135   C136    1.396   .     A
C135   O20     1.381   .     S
C136   H44     1.083   .     S
C137   C138    1.396   .     A
C137   H45     1.083   .     S
C138   C139    1.374   .     A
C138   O21     1.381   .     S
C139   C140    1.396   .     A
C139   O22     1.381   .     S
C140   H46     1.083   .     S
C141   C142    1.397   .     A
C141   H47     1.084   .     S
C142   C143    1.412   .     A
C142   O23     1.395   .     S
C143   C144    1.397   .     A
C143   O24     1.395   .     S
C144   H48     1.084   .     S
O17    Zn3     1.800   .     S
O18    Zn3     1.800   .     S
O19    Cu15    1.812   .     S
O20    Cu15    1.812   .     S
O21    Cu16    1.812   .     S
O22    Cu16    1.812   .     S
O23    Zn8     1.800   .     S
O24    Zn8     1.800   .     S
C145   C146    1.411   .     A
C145   C150    1.394   .     A
C145   H49     1.084   .     S
C146   C147    1.435   .     A
C146   C181    1.405   .     A
C147   C148    1.411   .     A
C147   C184    1.405   .     A
C148   C149    1.394   .     A
C148   H50     1.084   .     S
C149   C150    1.359   .     A
C149   C152    1.377   .     A
C150   C151    1.377   .     A
C151   N25     1.359   .     A
C151   N32     1.338   .     A
N25    C152    1.359   .     A
N25    Ni4     1.895   .     S
C152   N26     1.338   .     A
N26    C153    1.338   .     A
C153   N27     1.359   .     A
C153   C156    1.377   .     A
N27    C154    1.359   .     A
N27    Ni4     1.895   .     S
C154   C155    1.377   .     A
C154   N29     1.338   .     A
C155   C156    1.359   .     A
C155   C164    1.394   .     A
C156   C161    1.394   .     A
N28    C157    1.359   .     A
N28    C160    1.359   .     A
N28    Ni4     1.895   .     S
C157   N29     1.338   .     A
C157   C158    1.377   .     A
C158   C159    1.358   .     A
C158   C168    1.394   .     A
C159   C160    1.377   .     A
C159   C165    1.394   .     A
C160   N31     1.338   .     A
C161   C162    1.411   .     A
C161   H51     1.084   .     S
C162   C163    1.435   .     A
C162   C185    1.405   .     A
C163   C164    1.411   .     A
C163   C188    1.405   .     A
C164   H52     1.084   .     S
C165   C166    1.412   .     A
C165   H53     1.084   .     S
C166   C167    1.432   .     A
C166   C189    1.403   .     A
C167   C168    1.411   .     A
C167   C192    1.403   .     A
C168   H54     1.084   .     S
N30    C169    1.359   .     A
N30    C172    1.359   .     A
N30    Ni4     1.895   .     S
C169   N31     1.338   .     A
C169   C170    1.377   .     A
C170   C171    1.358   .     A
C170   C176    1.394   .     A
C171   C172    1.377   .     A
C171   C173    1.394   .     A
C172   N32     1.338   .     A
C173   C174    1.411   .     A
C173   H55     1.084   .     S
C174   C175    1.432   .     A
C174   C177    1.403   .     A
C175   C176    1.412   .     A
C175   C180    1.403   .     A
C176   H56     1.084   .     S
C177   C178    1.397   .     A
C177   H57     1.084   .     S
C178   C179    1.412   .     A
C178   O25     1.395   .     S
C179   C180    1.397   .     A
C179   O26     1.395   .     S
C180   H58     1.084   .     S
C181   C182    1.396   .     A
C181   H59     1.083   .     S
C182   C183    1.374   .     A
C182   O27     1.381   .     S
C183   C184    1.396   .     A
C183   O28     1.381   .     S
C184   H60     1.083   .     S
C185   C186    1.396   .     A
C185   H61     1.083   .     S
C186   C187    1.374   .     A
C186   O29     1.381   .     S
C187   C188    1.396   .     A
C187   O30     1.381   .     S
C188   H62     1.083   .     S
C189   C190    1.397   .     A
C189   H63     1.084   .     S
C190   C191    1.412   .     A
C190   O31     1.395   .     S
C191   C192    1.397   .     A
C191   O32     1.395   .     S
C192   H64     1.084   .     S
O25    Zn5     1.800   .     S
O26    Zn5     1.800   .     S
O27    Cu13    1.812   .     S
O28    Cu13    1.812   .     S
O29    Cu16    1.812   .     S
O30    Cu16    1.812   .     S
O31    Zn4     1.800   .     S
O32    Zn4     1.800   .     S
C193   C194    1.411   .     A
C193   C198    1.394   .     A
C193   H65     1.084   .     S
C194   C195    1.435   .     A
C194   C229    1.405   .     A
C195   C196    1.411   .     A
C195   C232    1.405   .     A
C196   C197    1.394   .     A
C196   H66     1.084   .     S
C197   C198    1.359   .     A
C197   C200    1.377   .     A
C198   C199    1.377   .     A
C199   N33     1.359   .     A
C199   N40     1.338   .     A
N33    C200    1.359   .     A
N33    Ni5     1.895   1_556 S
C200   N34     1.338   .     A
N34    C201    1.338   .     A
C201   N35     1.359   1_556 A
C201   C204    1.377   .     A
N35    C201    1.359   1_554 A
N35    C202    1.359   .     A
N35    Ni5     1.895   .     S
C202   C203    1.377   .     A
C202   N37     1.338   .     A
C203   C204    1.358   1_554 A
C203   C212    1.394   .     A
C204   C203    1.358   1_556 A
C204   C209    1.394   .     A
N36    C205    1.359   .     A
N36    C208    1.359   .     A
N36    Ni5     1.895   .     S
C205   N37     1.338   .     A
C205   C206    1.377   .     A
C206   C207    1.359   .     A
C206   C216    1.394   .     A
C207   C208    1.377   .     A
C207   C213    1.394   .     A
C208   N39     1.338   .     A
C209   C210    1.411   .     A
C209   H67     1.084   .     S
C210   C211    1.432   1_556 A
C210   C233    1.403   .     A
C211   C210    1.432   1_554 A
C211   C212    1.412   .     A
C211   C236    1.403   .     A
C212   H68     1.084   .     S
C213   C214    1.411   .     A
C213   H69     1.084   .     S
C214   C215    1.435   .     A
C214   C237    1.405   .     A
C215   C216    1.411   .     A
C215   C240    1.405   .     A
C216   H70     1.084   .     S
N38    C217    1.359   .     A
N38    C220    1.359   1_554 A
N38    Ni5     1.895   .     S
C217   N39     1.338   .     A
C217   C218    1.377   .     A
C218   C219    1.359   1_554 A
C218   C224    1.394   .     A
C219   C218    1.359   1_556 A
C219   C220    1.377   .     A
C219   C221    1.394   .     A
C220   N38     1.359   1_556 A
C220   N40     1.338   .     A
C221   C222    1.411   .     A
C221   H71     1.084   .     S
C222   C223    1.435   1_556 A
C222   C225    1.405   .     A
C223   C222    1.435   1_554 A
C223   C224    1.411   .     A
C223   C228    1.405   .     A
C224   H72     1.084   .     S
C225   C226    1.396   .     A
C225   H73     1.083   .     S
C226   C227    1.374   1_556 A
C226   O33     1.381   .     S
C227   C226    1.374   1_554 A
C227   C228    1.396   .     A
C227   O34     1.381   .     S
C228   H74     1.083   .     S
C229   C230    1.396   .     A
C229   H75     1.083   .     S
C230   C231    1.374   .     A
C230   O35     1.381   .     S
C231   C232    1.396   .     A
C231   O36     1.381   .     S
C232   H76     1.083   .     S
C233   C234    1.397   .     A
C233   H77     1.084   .     S
C234   C235    1.412   1_556 A
C234   O37     1.395   .     S
C235   C234    1.412   1_554 A
C235   C236    1.397   .     A
C235   O38     1.395   .     S
C236   H78     1.084   .     S
C237   C238    1.396   .     A
C237   H79     1.083   .     S
C238   C239    1.374   .     A
C238   O39     1.381   .     S
C239   C240    1.396   .     A
C239   O40     1.381   .     S
C240   H80     1.083   .     S
O33    Cu1     1.812   1_556 S
O34    Cu1     1.812   .     S
O35    Cu5     1.812   .     S
O36    Cu5     1.812   .     S
O37    Zn1     1.800   1_556 S
O38    Zn1     1.800   .     S
O39    Cu5     1.812   .     S
O40    Cu5     1.812   .     S
Ni5    N33     1.895   1_554 S
C241   C242    1.412   .     A
C241   C246    1.394   .     A
C241   H81     1.084   .     S
C242   C243    1.432   1_554 A
C242   C277    1.403   .     A
C243   C242    1.432   1_556 A
C243   C244    1.412   .     A
C243   C280    1.403   .     A
C244   C245    1.394   .     A
C244   H82     1.084   .     S
C245   C246    1.358   1_556 A
C245   C248    1.377   .     A
C246   C245    1.358   1_554 A
C246   C247    1.377   .     A
C247   N41     1.359   .     A
C247   N48     1.338   .     A
N41    C248    1.359   1_554 A
N41    Ni6     1.895   .     S
C248   N41     1.359   1_556 A
C248   N42     1.338   .     A
N42    C249    1.338   .     A
C249   N43     1.359   .     A
C249   C252    1.377   .     A
N43    C250    1.359   .     A
N43    Ni6     1.895   1_556 S
C250   C251    1.377   .     A
C250   N45     1.338   .     A
C251   C252    1.359   .     A
C251   C260    1.394   .     A
C252   C257    1.394   .     A
N44    C253    1.359   1_554 A
N44    C256    1.359   .     A
N44    Ni6     1.895   .     S
C253   N44     1.359   1_556 A
C253   N45     1.338   .     A
C253   C254    1.377   .     A
C254   C255    1.359   1_556 A
C254   C264    1.394   .     A
C255   C254    1.359   1_554 A
C255   C256    1.377   .     A
C255   C261    1.394   .     A
C256   N47     1.338   .     A
C257   C258    1.411   .     A
C257   H83     1.084   .     S
C258   C259    1.435   .     A
C258   C281    1.405   .     A
C259   C260    1.411   .     A
C259   C284    1.405   .     A
C260   H84     1.084   .     S
C261   C262    1.411   .     A
C261   H85     1.084   .     S
C262   C263    1.435   1_554 A
C262   C285    1.405   .     A
C263   C262    1.435   1_556 A
C263   C264    1.411   .     A
C263   C288    1.405   .     A
C264   H86     1.084   .     S
N46    C265    1.359   .     A
N46    C268    1.359   .     A
N46    Ni6     1.895   .     S
C265   N47     1.338   .     A
C265   C266    1.377   .     A
C266   C267    1.359   .     A
C266   C272    1.394   .     A
C267   C268    1.377   .     A
C267   C269    1.394   .     A
C268   N48     1.338   .     A
C269   C270    1.411   .     A
C269   H87     1.084   .     S
C270   C271    1.435   .     A
C270   C273    1.405   .     A
C271   C272    1.411   .     A
C271   C276    1.405   .     A
C272   H88     1.084   .     S
C273   C274    1.396   .     A
C273   H89     1.083   .     S
C274   C275    1.374   .     A
C274   O41     1.381   .     S
C275   C276    1.396   .     A
C275   O42     1.381   .     S
C276   H90     1.083   .     S
C277   C278    1.397   .     A
C277   H91     1.084   .     S
C278   C279    1.412   1_554 A
C278   O43     1.395   .     S
C279   C278    1.412   1_556 A
C279   C280    1.397   .     A
C279   O44     1.395   .     S
C280   H92     1.084   .     S
C281   C282    1.396   .     A
C281   H93     1.083   .     S
C282   C283    1.374   .     A
C282   O45     1.381   .     S
C283   C284    1.396   .     A
C283   O46     1.381   .     S
C284   H94     1.083   .     S
C285   C286    1.396   .     A
C285   H95     1.083   .     S
C286   C287    1.374   1_554 A
C286   O47     1.381   .     S
C287   C286    1.374   1_556 A
C287   C288    1.396   .     A
C287   O48     1.381   .     S
C288   H96     1.083   .     S
O41    Cu6     1.812   .     S
O42    Cu6     1.812   .     S
O43    Zn2     1.800   .     S
O44    Zn2     1.800   1_556 S
O45    Cu6     1.812   .     S
O46    Cu6     1.812   .     S
O47    Cu2     1.812   1_545 S
O48    Cu2     1.812   1_546 S
Ni6    N43     1.895   1_554 S
C289   C290    1.411   .     A
C289   C294    1.394   .     A
C289   H97     1.084   .     S
C290   C291    1.435   .     A
C290   C325    1.405   .     A
C291   C292    1.411   .     A
C291   C328    1.405   .     A
C292   C293    1.394   .     A
C292   H98     1.084   .     S
C293   C294    1.359   .     A
C293   C296    1.377   .     A
C294   C295    1.377   .     A
C295   N49     1.359   .     A
C295   N56     1.338   .     A
N49    C296    1.359   .     A
N49    Ni7     1.895   .     S
C296   N50     1.338   .     A
N50    C297    1.338   .     A
C297   N51     1.359   .     A
C297   C300    1.377   .     A
N51    C298    1.359   1_554 A
N51    Ni7     1.895   .     S
C298   N51     1.359   1_556 A
C298   C299    1.377   .     A
C298   N53     1.338   .     A
C299   C300    1.358   1_556 A
C299   C308    1.394   .     A
C300   C299    1.358   1_554 A
C300   C305    1.394   .     A
N52    C301    1.359   .     A
N52    C304    1.359   .     A
N52    Ni7     1.895   1_556 S
C301   N53     1.338   .     A
C301   C302    1.377   .     A
C302   C303    1.359   .     A
C302   C312    1.394   .     A
C303   C304    1.377   .     A
C303   C309    1.394   .     A
C304   N55     1.338   .     A
C305   C306    1.412   .     A
C305   H99     1.084   .     S
C306   C307    1.432   1_554 A
C306   C329    1.403   .     A
C307   C306    1.432   1_556 A
C307   C308    1.412   .     A
C307   C332    1.403   .     A
C308   H100    1.084   .     S
C309   C310    1.411   .     A
C309   H101    1.084   .     S
C310   C311    1.435   .     A
C310   C333    1.405   .     A
C311   C312    1.411   .     A
C311   C336    1.405   .     A
C312   H102    1.084   .     S
N54    C313    1.359   1_554 A
N54    C316    1.359   .     A
N54    Ni7     1.895   .     S
C313   N54     1.359   1_556 A
C313   N55     1.338   .     A
C313   C314    1.377   .     A
C314   C315    1.359   1_556 A
C314   C320    1.394   .     A
C315   C314    1.359   1_554 A
C315   C316    1.377   .     A
C315   C317    1.394   .     A
C316   N56     1.338   .     A
C317   C318    1.411   .     A
C317   H103    1.084   .     S
C318   C319    1.435   1_554 A
C318   C321    1.405   .     A
C319   C318    1.435   1_556 A
C319   C320    1.411   .     A
C319   C324    1.405   .     A
C320   H104    1.084   .     S
C321   C322    1.396   .     A
C321   H105    1.083   .     S
C322   C323    1.374   1_554 A
C322   O49     1.381   .     S
C323   C322    1.374   1_556 A
C323   C324    1.396   .     A
C323   O50     1.381   .     S
C324   H106    1.083   .     S
C325   C326    1.396   .     A
C325   H107    1.083   .     S
C326   C327    1.374   .     A
C326   O51     1.381   .     S
C327   C328    1.396   .     A
C327   O52     1.381   .     S
C328   H108    1.083   .     S
C329   C330    1.397   .     A
C329   H109    1.084   .     S
C330   C331    1.412   1_554 A
C330   O53     1.395   .     S
C331   C330    1.412   1_556 A
C331   C332    1.397   .     A
C331   O54     1.395   .     S
C332   H110    1.084   .     S
C333   C334    1.396   .     A
C333   H111    1.083   .     S
C334   C335    1.374   .     A
C334   O55     1.381   .     S
C335   C336    1.396   .     A
C335   O56     1.381   .     S
C336   H112    1.083   .     S
O49    Cu3     1.812   .     S
O50    Cu3     1.812   1_556 S
O51    Cu7     1.812   .     S
O52    Cu7     1.812   .     S
O53    Zn3     1.800   .     S
O54    Zn3     1.800   1_556 S
O55    Cu7     1.812   .     S
O56    Cu7     1.812   .     S
Ni7    N52     1.895   1_554 S
C337   C338    1.412   .     A
C337   C342    1.394   .     A
C337   H113    1.084   .     S
C338   C339    1.432   1_556 A
C338   C373    1.403   .     A
C339   C338    1.432   1_554 A
C339   C340    1.412   .     A
C339   C376    1.403   .     A
C340   C341    1.394   .     A
C340   H114    1.084   .     S
C341   C342    1.358   1_554 A
C341   C344    1.377   .     A
C342   C341    1.358   1_556 A
C342   C343    1.377   .     A
C343   N57     1.359   1_556 A
C343   N64     1.338   .     A
N57    C343    1.359   1_554 A
N57    C344    1.359   .     A
N57    Ni8     1.895   .     S
C344   N58     1.338   .     A
N58    C345    1.338   .     A
C345   N59     1.359   .     A
C345   C348    1.377   .     A
N59    C346    1.359   .     A
N59    Ni8     1.895   .     S
C346   C347    1.377   .     A
C346   N61     1.338   .     A
C347   C348    1.359   .     A
C347   C356    1.394   .     A
C348   C353    1.394   .     A
N60    C349    1.359   .     A
N60    C352    1.359   1_554 A
N60    Ni8     1.895   .     S
C349   N61     1.338   .     A
C349   C350    1.377   .     A
C350   C351    1.359   1_554 A
C350   C360    1.394   .     A
C351   C350    1.359   1_556 A
C351   C352    1.377   .     A
C351   C357    1.394   .     A
C352   N60     1.359   1_556 A
C352   N63     1.338   .     A
C353   C354    1.411   .     A
C353   H115    1.084   .     S
C354   C355    1.435   .     A
C354   C377    1.405   .     A
C355   C356    1.411   .     A
C355   C380    1.405   .     A
C356   H116    1.084   .     S
C357   C358    1.411   .     A
C357   H117    1.084   .     S
C358   C359    1.435   1_556 A
C358   C381    1.405   .     A
C359   C358    1.435   1_554 A
C359   C360    1.411   .     A
C359   C384    1.405   .     A
C360   H118    1.084   .     S
N62    C361    1.359   .     A
N62    C364    1.359   .     A
N62    Ni8     1.895   1_556 S
C361   N63     1.338   .     A
C361   C362    1.377   .     A
C362   C363    1.359   .     A
C362   C368    1.394   .     A
C363   C364    1.377   .     A
C363   C365    1.394   .     A
C364   N64     1.338   .     A
C365   C366    1.411   .     A
C365   H119    1.084   .     S
C366   C367    1.435   .     A
C366   C369    1.405   .     A
C367   C368    1.411   .     A
C367   C372    1.405   .     A
C368   H120    1.084   .     S
C369   C370    1.396   .     A
C369   H121    1.083   .     S
C370   C371    1.374   .     A
C370   O57     1.381   .     S
C371   C372    1.396   .     A
C371   O58     1.381   .     S
C372   H122    1.083   .     S
C373   C374    1.397   .     A
C373   H123    1.084   .     S
C374   C375    1.412   1_556 A
C374   O59     1.395   .     S
C375   C374    1.412   1_554 A
C375   C376    1.397   .     A
C375   O60     1.395   .     S
C376   H124    1.084   .     S
C377   C378    1.396   .     A
C377   H125    1.083   .     S
C378   C379    1.374   .     A
C378   O61     1.381   .     S
C379   C380    1.396   .     A
C379   O62     1.381   .     S
C380   H126    1.083   .     S
C381   C382    1.396   .     A
C381   H127    1.083   .     S
C382   C383    1.374   1_556 A
C382   O63     1.381   .     S
C383   C382    1.374   1_554 A
C383   C384    1.396   .     A
C383   O64     1.381   .     S
C384   H128    1.083   .     S
O57    Cu8     1.812   .     S
O58    Cu8     1.812   .     S
O59    Zn4     1.800   1_556 S
O60    Zn4     1.800   .     S
O61    Cu8     1.812   .     S
O62    Cu8     1.812   .     S
O63    Cu4     1.812   1_566 S
O64    Cu4     1.812   1_565 S
Ni8    N62     1.895   1_554 S
C385   C386    1.411   .     A
C385   C390    1.394   .     A
C385   H129    1.084   .     S
C386   C387    1.435   .     A
C386   C421    1.405   .     A
C387   C388    1.411   .     A
C387   C424    1.405   .     A
C388   C389    1.394   .     A
C388   H130    1.084   .     S
C389   C390    1.359   .     A
C389   C392    1.377   .     A
C390   C391    1.377   .     A
C391   N65     1.359   .     A
C391   N72     1.338   .     A
N65    C392    1.359   .     A
N65    Ni9     1.895   1_556 S
C392   N66     1.338   .     A
N66    C393    1.338   .     A
C393   N67     1.359   1_556 A
C393   C396    1.377   .     A
N67    C393    1.359   1_554 A
N67    C394    1.359   .     A
N67    Ni9     1.895   .     S
C394   C395    1.377   .     A
C394   N69     1.338   .     A
C395   C396    1.358   1_554 A
C395   C404    1.394   .     A
C396   C395    1.358   1_556 A
C396   C401    1.394   .     A
N68    C397    1.359   .     A
N68    C400    1.359   .     A
N68    Ni9     1.895   .     S
C397   N69     1.338   .     A
C397   C398    1.377   .     A
C398   C399    1.359   .     A
C398   C408    1.394   .     A
C399   C400    1.377   .     A
C399   C405    1.394   .     A
C400   N71     1.338   .     A
C401   C402    1.412   .     A
C401   H131    1.084   .     S
C402   C403    1.432   1_556 A
C402   C425    1.403   .     A
C403   C402    1.432   1_554 A
C403   C404    1.412   .     A
C403   C428    1.403   .     A
C404   H132    1.084   .     S
C405   C406    1.411   .     A
C405   H133    1.084   .     S
C406   C407    1.435   .     A
C406   C429    1.405   .     A
C407   C408    1.411   .     A
C407   C432    1.405   .     A
C408   H134    1.084   .     S
N70    C409    1.359   .     A
N70    C412    1.359   1_554 A
N70    Ni9     1.895   .     S
C409   N71     1.338   .     A
C409   C410    1.377   .     A
C410   C411    1.359   1_554 A
C410   C416    1.394   .     A
C411   C410    1.359   1_556 A
C411   C412    1.377   .     A
C411   C413    1.394   .     A
C412   N70     1.359   1_556 A
C412   N72     1.338   .     A
C413   C414    1.411   .     A
C413   H135    1.084   .     S
C414   C415    1.435   1_556 A
C414   C417    1.405   .     A
C415   C414    1.435   1_554 A
C415   C416    1.411   .     A
C415   C420    1.405   .     A
C416   H136    1.084   .     S
C417   C418    1.396   .     A
C417   H137    1.083   .     S
C418   C419    1.374   1_556 A
C418   O65     1.381   .     S
C419   C418    1.374   1_554 A
C419   C420    1.396   .     A
C419   O66     1.381   .     S
C420   H138    1.083   .     S
C421   C422    1.396   .     A
C421   H139    1.083   .     S
C422   C423    1.374   .     A
C422   O67     1.381   .     S
C423   C424    1.396   .     A
C423   O68     1.381   .     S
C424   H140    1.083   .     S
C425   C426    1.397   .     A
C425   H141    1.084   .     S
C426   C427    1.412   1_556 A
C426   O69     1.395   .     S
C427   C426    1.412   1_554 A
C427   C428    1.397   .     A
C427   O70     1.395   .     S
C428   H142    1.084   .     S
C429   C430    1.396   .     A
C429   H143    1.083   .     S
C430   C431    1.374   .     A
C430   O71     1.381   .     S
C431   C432    1.396   .     A
C431   O72     1.381   .     S
C432   H144    1.083   .     S
O65    Cu3     1.812   1_456 S
O66    Cu3     1.812   1_455 S
O67    Cu9     1.812   .     S
O68    Cu9     1.812   .     S
O69    Zn5     1.800   1_556 S
O70    Zn5     1.800   .     S
O71    Cu9     1.812   .     S
O72    Cu9     1.812   .     S
Ni9    N65     1.895   1_554 S
C433   C434    1.412   .     A
C433   C438    1.394   .     A
C433   H145    1.084   .     S
C434   C435    1.432   1_554 A
C434   C469    1.403   .     A
C435   C434    1.432   1_556 A
C435   C436    1.412   .     A
C435   C472    1.403   .     A
C436   C437    1.394   .     A
C436   H146    1.084   .     S
C437   C438    1.358   1_556 A
C437   C440    1.377   .     A
C438   C437    1.358   1_554 A
C438   C439    1.377   .     A
C439   N73     1.359   .     A
C439   N80     1.338   .     A
N73    C440    1.359   1_554 A
N73    Ni10    1.895   .     S
C440   N73     1.359   1_556 A
C440   N74     1.338   .     A
N74    C441    1.338   .     A
C441   N75     1.359   .     A
C441   C444    1.377   .     A
N75    C442    1.359   .     A
N75    Ni10    1.895   1_556 S
C442   C443    1.377   .     A
C442   N77     1.338   .     A
C443   C444    1.359   .     A
C443   C452    1.394   .     A
C444   C449    1.394   .     A
N76    C445    1.359   1_554 A
N76    C448    1.359   .     A
N76    Ni10    1.895   .     S
C445   N76     1.359   1_556 A
C445   N77     1.338   .     A
C445   C446    1.377   .     A
C446   C447    1.359   1_556 A
C446   C456    1.394   .     A
C447   C446    1.359   1_554 A
C447   C448    1.377   .     A
C447   C453    1.394   .     A
C448   N79     1.338   .     A
C449   C450    1.411   .     A
C449   H147    1.084   .     S
C450   C451    1.435   .     A
C450   C473    1.405   .     A
C451   C452    1.411   .     A
C451   C476    1.405   .     A
C452   H148    1.084   .     S
C453   C454    1.411   .     A
C453   H149    1.084   .     S
C454   C455    1.435   1_554 A
C454   C477    1.405   .     A
C455   C454    1.435   1_556 A
C455   C456    1.411   .     A
C455   C480    1.405   .     A
C456   H150    1.084   .     S
N78    C457    1.359   .     A
N78    C460    1.359   .     A
N78    Ni10    1.895   .     S
C457   N79     1.338   .     A
C457   C458    1.377   .     A
C458   C459    1.359   .     A
C458   C464    1.394   .     A
C459   C460    1.377   .     A
C459   C461    1.394   .     A
C460   N80     1.338   .     A
C461   C462    1.411   .     A
C461   H151    1.084   .     S
C462   C463    1.435   .     A
C462   C465    1.405   .     A
C463   C464    1.411   .     A
C463   C468    1.405   .     A
C464   H152    1.084   .     S
C465   C466    1.396   .     A
C465   H153    1.083   .     S
C466   C467    1.374   .     A
C466   O73     1.381   .     S
C467   C468    1.396   .     A
C467   O74     1.381   .     S
C468   H154    1.083   .     S
C469   C470    1.397   .     A
C469   H155    1.084   .     S
C470   C471    1.412   1_554 A
C470   O75     1.395   .     S
C471   C470    1.412   1_556 A
C471   C472    1.397   .     A
C471   O76     1.395   .     S
C472   H156    1.084   .     S
C473   C474    1.396   .     A
C473   H157    1.083   .     S
C474   C475    1.374   .     A
C474   O77     1.381   .     S
C475   C476    1.396   .     A
C475   O78     1.381   .     S
C476   H158    1.083   .     S
C477   C478    1.396   .     A
C477   H159    1.083   .     S
C478   C479    1.374   1_554 A
C478   O79     1.381   .     S
C479   C478    1.374   1_556 A
C479   C480    1.396   .     A
C479   O80     1.381   .     S
C480   H160    1.083   .     S
O73    Cu10    1.812   .     S
O74    Cu10    1.812   .     S
O75    Zn6     1.800   .     S
O76    Zn6     1.800   1_556 S
O77    Cu10    1.812   .     S
O78    Cu10    1.812   .     S
O79    Cu4     1.812   .     S
O80    Cu4     1.812   1_556 S
Ni10   N75     1.895   1_554 S
C481   C482    1.411   .     A
C481   C486    1.394   .     A
C481   H161    1.084   .     S
C482   C483    1.435   .     A
C482   C517    1.405   .     A
C483   C484    1.411   .     A
C483   C520    1.405   .     A
C484   C485    1.394   .     A
C484   H162    1.084   .     S
C485   C486    1.359   .     A
C485   C488    1.377   .     A
C486   C487    1.377   .     A
C487   N81     1.359   .     A
C487   N88     1.338   .     A
N81    C488    1.359   .     A
N81    Ni11    1.895   .     S
C488   N82     1.338   .     A
N82    C489    1.338   .     A
C489   N83     1.359   .     A
C489   C492    1.377   .     A
N83    C490    1.359   1_554 A
N83    Ni11    1.895   .     S
C490   N83     1.359   1_556 A
C490   C491    1.377   .     A
C490   N85     1.338   .     A
C491   C492    1.358   1_556 A
C491   C500    1.394   .     A
C492   C491    1.358   1_554 A
C492   C497    1.394   .     A
N84    C493    1.359   .     A
N84    C496    1.359   .     A
N84    Ni11    1.895   1_556 S
C493   N85     1.338   .     A
C493   C494    1.377   .     A
C494   C495    1.359   .     A
C494   C504    1.394   .     A
C495   C496    1.377   .     A
C495   C501    1.394   .     A
C496   N87     1.338   .     A
C497   C498    1.412   .     A
C497   H163    1.084   .     S
C498   C499    1.432   1_554 A
C498   C521    1.403   .     A
C499   C498    1.432   1_556 A
C499   C500    1.412   .     A
C499   C524    1.403   .     A
C500   H164    1.084   .     S
C501   C502    1.411   .     A
C501   H165    1.084   .     S
C502   C503    1.435   .     A
C502   C525    1.405   .     A
C503   C504    1.411   .     A
C503   C528    1.405   .     A
C504   H166    1.084   .     S
N86    C505    1.359   1_554 A
N86    C508    1.359   .     A
N86    Ni11    1.895   .     S
C505   N86     1.359   1_556 A
C505   N87     1.338   .     A
C505   C506    1.377   .     A
C506   C507    1.359   1_556 A
C506   C512    1.394   .     A
C507   C506    1.359   1_554 A
C507   C508    1.377   .     A
C507   C509    1.394   .     A
C508   N88     1.338   .     A
C509   C510    1.411   .     A
C509   H167    1.084   .     S
C510   C511    1.435   1_554 A
C510   C513    1.405   .     A
C511   C510    1.435   1_556 A
C511   C512    1.411   .     A
C511   C516    1.405   .     A
C512   H168    1.084   .     S
C513   C514    1.396   .     A
C513   H169    1.083   .     S
C514   C515    1.374   1_554 A
C514   O81     1.381   .     S
C515   C514    1.374   1_556 A
C515   C516    1.396   .     A
C515   O82     1.381   .     S
C516   H170    1.083   .     S
C517   C518    1.396   .     A
C517   H171    1.083   .     S
C518   C519    1.374   .     A
C518   O83     1.381   .     S
C519   C520    1.396   .     A
C519   O84     1.381   .     S
C520   H172    1.083   .     S
C521   C522    1.397   .     A
C521   H173    1.084   .     S
C522   C523    1.412   1_554 A
C522   O85     1.395   .     S
C523   C522    1.412   1_556 A
C523   C524    1.397   .     A
C523   O86     1.395   .     S
C524   H174    1.084   .     S
C525   C526    1.396   .     A
C525   H175    1.083   .     S
C526   C527    1.374   .     A
C526   O87     1.381   .     S
C527   C528    1.396   .     A
C527   O88     1.381   .     S
C528   H176    1.083   .     S
O81    Cu1     1.812   1_655 S
O82    Cu1     1.812   1_656 S
O83    Cu11    1.812   .     S
O84    Cu11    1.812   .     S
O85    Zn7     1.800   .     S
O86    Zn7     1.800   1_556 S
O87    Cu11    1.812   .     S
O88    Cu11    1.812   .     S
Ni11   N84     1.895   1_554 S
C529   C530    1.412   .     A
C529   C534    1.394   .     A
C529   H177    1.084   .     S
C530   C531    1.432   1_556 A
C530   C565    1.403   .     A
C531   C530    1.432   1_554 A
C531   C532    1.412   .     A
C531   C568    1.403   .     A
C532   C533    1.394   .     A
C532   H178    1.084   .     S
C533   C534    1.358   1_554 A
C533   C536    1.377   .     A
C534   C533    1.358   1_556 A
C534   C535    1.377   .     A
C535   N89     1.359   1_556 A
C535   N96     1.338   .     A
N89    C535    1.359   1_554 A
N89    C536    1.359   .     A
N89    Ni12    1.895   .     S
C536   N90     1.338   .     A
N90    C537    1.338   .     A
C537   N91     1.359   .     A
C537   C540    1.377   .     A
N91    C538    1.359   .     A
N91    Ni12    1.895   .     S
C538   C539    1.377   .     A
C538   N93     1.338   .     A
C539   C540    1.359   .     A
C539   C548    1.394   .     A
C540   C545    1.394   .     A
N92    C541    1.359   .     A
N92    C544    1.359   1_554 A
N92    Ni12    1.895   .     S
C541   N93     1.338   .     A
C541   C542    1.377   .     A
C542   C543    1.359   1_554 A
C542   C552    1.394   .     A
C543   C542    1.359   1_556 A
C543   C544    1.377   .     A
C543   C549    1.394   .     A
C544   N92     1.359   1_556 A
C544   N95     1.338   .     A
C545   C546    1.411   .     A
C545   H179    1.084   .     S
C546   C547    1.435   .     A
C546   C569    1.405   .     A
C547   C548    1.411   .     A
C547   C572    1.405   .     A
C548   H180    1.084   .     S
C549   C550    1.411   .     A
C549   H181    1.084   .     S
C550   C551    1.435   1_556 A
C550   C573    1.405   .     A
C551   C550    1.435   1_554 A
C551   C552    1.411   .     A
C551   C576    1.405   .     A
C552   H182    1.084   .     S
N94    C553    1.359   .     A
N94    C556    1.359   .     A
N94    Ni12    1.895   1_556 S
C553   N95     1.338   .     A
C553   C554    1.377   .     A
C554   C555    1.359   .     A
C554   C560    1.394   .     A
C555   C556    1.377   .     A
C555   C557    1.394   .     A
C556   N96     1.338   .     A
C557   C558    1.411   .     A
C557   H183    1.084   .     S
C558   C559    1.435   .     A
C558   C561    1.405   .     A
C559   C560    1.411   .     A
C559   C564    1.405   .     A
C560   H184    1.084   .     S
C561   C562    1.396   .     A
C561   H185    1.083   .     S
C562   C563    1.374   .     A
C562   O89     1.381   .     S
C563   C564    1.396   .     A
C563   O90     1.381   .     S
C564   H186    1.083   .     S
C565   C566    1.397   .     A
C565   H187    1.084   .     S
C566   C567    1.412   1_556 A
C566   O91     1.395   .     S
C567   C566    1.412   1_554 A
C567   C568    1.397   .     A
C567   O92     1.395   .     S
C568   H188    1.084   .     S
C569   C570    1.396   .     A
C569   H189    1.083   .     S
C570   C571    1.374   .     A
C570   O93     1.381   .     S
C571   C572    1.396   .     A
C571   O94     1.381   .     S
C572   H190    1.083   .     S
C573   C574    1.396   .     A
C573   H191    1.083   .     S
C574   C575    1.374   1_556 A
C574   O95     1.381   .     S
C575   C574    1.374   1_554 A
C575   C576    1.396   .     A
C575   O96     1.381   .     S
C576   H192    1.083   .     S
O89    Cu12    1.812   .     S
O90    Cu12    1.812   .     S
O91    Zn8     1.800   1_556 S
O92    Zn8     1.800   .     S
O93    Cu12    1.812   .     S
O94    Cu12    1.812   .     S
O95    Cu2     1.812   1_556 S
O96    Cu2     1.812   .     S
Ni12   N94     1.895   1_554 S
Cu1    O33     1.812   1_554 S
Cu1    O82     1.812   1_454 S
Cu1    O81     1.812   1_455 S
Cu2    O48     1.812   1_564 S
Cu2    O95     1.812   1_554 S
Cu2    O47     1.812   1_565 S
Cu3    O65     1.812   1_654 S
Cu3    O50     1.812   1_554 S
Cu3    O66     1.812   1_655 S
Cu4    O80     1.812   1_554 S
Cu4    O63     1.812   1_544 S
Cu4    O64     1.812   1_545 S
Zn1    O37     1.800   1_554 S
Zn2    O44     1.800   1_554 S
Zn3    O54     1.800   1_554 S
Zn4    O59     1.800   1_554 S
Zn5    O69     1.800   1_554 S
Zn6    O76     1.800   1_554 S
Zn7    O86     1.800   1_554 S
Zn8    O91     1.800   1_554 S
