data_ssf-PcM_O-Zntet
_audit_creation_date              2021-11-06
_audit_creation_method            'Materials Studio'
_symmetry_space_group_name_H-M    'P1'
_symmetry_Int_Tables_number       1
_symmetry_cell_setting            triclinic
loop_
_symmetry_equiv_pos_as_xyz
  x,y,z
_cell_length_a                    71.0613
_cell_length_b                    71.0611
_cell_length_c                    17.9089
_cell_angle_alpha                 90.0000
_cell_angle_beta                  90.0000
_cell_angle_gamma                 90.0002
loop_
_atom_site_label
_atom_site_type_symbol
_atom_site_fract_x
_atom_site_fract_y
_atom_site_fract_z
_atom_site_U_iso_or_equiv
_atom_site_adp_type
_atom_site_occupancy
C1     C     0.39398   0.44779   0.00000   0.00000  Uiso   1.00
C2     C     0.38374   0.46472   0.00000   0.00000  Uiso   1.00
C3     C     0.36420   0.46472   0.00002   0.00000  Uiso   1.00
C4     C     0.35396   0.44778   0.00003   0.00000  Uiso   1.00
C5     C     0.36438   0.43108   0.00003   0.00000  Uiso   1.00
C6     C     0.38357   0.43109   0.00002   0.00000  Uiso   1.00
C7     C     0.38902   0.41250   0.00003   0.00000  Uiso   1.00
N1     N     0.37398   0.40067   0.00004   0.00000  Uiso   1.00
C8     C     0.35894   0.41249   0.00004   0.00000  Uiso   1.00
N2     N     0.34092   0.40704   1.00006   0.00000  Uiso   1.00
C9     C     0.33548   0.38901   1.00007   0.00000  Uiso   1.00
N3     N     0.34732   0.37398   0.00007   0.00000  Uiso   1.00
C10    C     0.33548   0.35895   0.00008   0.00000  Uiso   1.00
C11    C     0.31689   0.36440   0.00008   0.00000  Uiso   1.00
C12    C     0.31689   0.38355   1.00008   0.00000  Uiso   1.00
N4     N     0.37399   0.34732   0.00006   0.00000  Uiso   1.00
C13    C     0.35896   0.33548   0.00007   0.00000  Uiso   1.00
N5     N     0.34094   0.34092   0.00008   0.00000  Uiso   1.00
C14    C     0.36443   0.31689   0.00008   0.00000  Uiso   1.00
C15    C     0.38357   0.31690   0.00007   0.00000  Uiso   1.00
C16    C     0.38903   0.33548   0.00006   0.00000  Uiso   1.00
C17    C     0.30026   0.39400   1.00008   0.00000  Uiso   1.00
C18    C     0.28317   0.38402   1.00009   0.00000  Uiso   1.00
C19    C     0.28316   0.36395   1.00010   0.00000  Uiso   1.00
C20    C     0.30025   0.35396   0.00009   0.00000  Uiso   1.00
C21    C     0.39403   0.30027   0.00007   0.00000  Uiso   1.00
C22    C     0.38407   0.28318   0.00008   0.00000  Uiso   1.00
C23    C     0.36399   0.28316   0.00009   0.00000  Uiso   1.00
C24    C     0.35400   0.30024   0.00009   0.00000  Uiso   1.00
N6     N     0.40067   0.37400   0.00004   0.00000  Uiso   1.00
C25    C     0.41250   0.35895   1.00004   0.00000  Uiso   1.00
N7     N     0.40705   0.34093   1.00005   0.00000  Uiso   1.00
C26    C     0.43108   0.36440   1.00003   0.00000  Uiso   1.00
C27    C     0.43108   0.38359   0.00002   0.00000  Uiso   1.00
C28    C     0.41250   0.38904   0.00002   0.00000  Uiso   1.00
C29    C     0.44778   0.39401   0.00000   0.00000  Uiso   1.00
C30    C     0.46472   0.38377  -0.00001   0.00000  Uiso   1.00
C31    C     0.46472   0.36423   1.00001   0.00000  Uiso   1.00
C32    C     0.44778   0.35399   1.00002   0.00000  Uiso   1.00
N8     N     0.40705   0.40706   0.00001   0.00000  Uiso   1.00
H1     H     0.40921   0.44771  -0.00000   0.00000  Uiso   1.00
O1     O     0.39224   0.48219  -0.00001   0.00000  Uiso   1.00
O2     O     0.35569   0.48218   0.00001   0.00000  Uiso   1.00
H2     H     0.33873   0.44770   0.00004   0.00000  Uiso   1.00
H3     H     0.30049   0.40923   1.00007   0.00000  Uiso   1.00
O3     O     0.26606   0.39364   1.00009   0.00000  Uiso   1.00
O4     O     0.26604   0.35435   1.00011   0.00000  Uiso   1.00
H4     H     0.30048   0.33873   0.00010   0.00000  Uiso   1.00
H5     H     0.40926   0.30051   1.00007   0.00000  Uiso   1.00
O5     O     0.39370   0.26607   0.00009   0.00000  Uiso   1.00
O6     O     0.35440   0.26603   0.00010   0.00000  Uiso   1.00
H6     H     0.33876   0.30045   0.00009   0.00000  Uiso   1.00
H7     H     0.44770   0.40924  -0.00000   0.00000  Uiso   1.00
O7     O     0.48218   0.39228   0.99997   0.00000  Uiso   1.00
O8     O     0.48218   0.35573   1.00000   0.00000  Uiso   1.00
H8     H     0.44771   0.33876   1.00003   0.00000  Uiso   1.00
Ni1    Ni    0.37399   0.37399   0.00004   0.00000  Uiso   1.00
C33    C     0.60602   0.44779   0.99999   0.00000  Uiso   1.00
C34    C     0.61626   0.46472   1.00000   0.00000  Uiso   1.00
C35    C     0.63580   0.46472   1.00002   0.00000  Uiso   1.00
C36    C     0.64604   0.44778   0.00003   0.00000  Uiso   1.00
C37    C     0.63562   0.43108   1.00003   0.00000  Uiso   1.00
C38    C     0.61643   0.43109   1.00001   0.00000  Uiso   1.00
C39    C     0.61098   0.41250   1.00002   0.00000  Uiso   1.00
N9     N     0.62602   0.40067   1.00004   0.00000  Uiso   1.00
C40    C     0.64106   0.41250   1.00004   0.00000  Uiso   1.00
N10    N     0.65908   0.40704   0.00006   0.00000  Uiso   1.00
C41    C     0.66452   0.38901   0.00007   0.00000  Uiso   1.00
N11    N     0.65268   0.37398   1.00007   0.00000  Uiso   1.00
C42    C     0.66452   0.35895   1.00008   0.00000  Uiso   1.00
C43    C     0.68311   0.36440   0.00009   0.00000  Uiso   1.00
C44    C     0.68310   0.38355   0.00009   0.00000  Uiso   1.00
N12    N     0.62601   0.34732   1.00006   0.00000  Uiso   1.00
C45    C     0.64104   0.33548   1.00007   0.00000  Uiso   1.00
N13    N     0.65906   0.34092   1.00008   0.00000  Uiso   1.00
C46    C     0.63557   0.31689   1.00007   0.00000  Uiso   1.00
C47    C     0.61643   0.31690   0.00006   0.00000  Uiso   1.00
C48    C     0.61097   0.33548   0.00006   0.00000  Uiso   1.00
C49    C     0.69974   0.39400   0.00011   0.00000  Uiso   1.00
C50    C     0.71683   0.38402   0.00012   0.00000  Uiso   1.00
C51    C     0.71684   0.36395   0.00011   0.00000  Uiso   1.00
C52    C     0.69975   0.35396   0.00011   0.00000  Uiso   1.00
C53    C     0.60597   0.30027   0.00007   0.00000  Uiso   1.00
C54    C     0.61593   0.28318   1.00008   0.00000  Uiso   1.00
C55    C     0.63601   0.28316   1.00008   0.00000  Uiso   1.00
C56    C     0.64600   0.30024   1.00008   0.00000  Uiso   1.00
N14    N     0.59933   0.37400   1.00003   0.00000  Uiso   1.00
C57    C     0.58750   0.35895   0.00002   0.00000  Uiso   1.00
N15    N     0.59295   0.34093   0.00004   0.00000  Uiso   1.00
C58    C     0.56891   0.36440   0.00001   0.00000  Uiso   1.00
C59    C     0.56892   0.38359   1.00000   0.00000  Uiso   1.00
C60    C     0.58750   0.38904   1.00000   0.00000  Uiso   1.00
C61    C     0.55222   0.39401   0.99998   0.00000  Uiso   1.00
C62    C     0.53528   0.38377  -0.00003   0.00000  Uiso   1.00
C63    C     0.53528   0.36423  -0.00001   0.00000  Uiso   1.00
C64    C     0.55221   0.35399   0.00001   0.00000  Uiso   1.00
N16    N     0.59295   0.40706   1.00000   0.00000  Uiso   1.00
H9     H     0.59079   0.44771   0.99999   0.00000  Uiso   1.00
O9     O     0.60776   0.48219   0.99998   0.00000  Uiso   1.00
O10    O     0.64431   0.48218   1.00001   0.00000  Uiso   1.00
H10    H     0.66127   0.44770   0.00005   0.00000  Uiso   1.00
H11    H     0.69951   0.40923   0.00011   0.00000  Uiso   1.00
O11    O     0.73394   0.39364   0.00013   0.00000  Uiso   1.00
O12    O     0.73396   0.35435   0.00013   0.00000  Uiso   1.00
H12    H     0.69952   0.33873   0.00010   0.00000  Uiso   1.00
H13    H     0.59074   0.30051   0.00006   0.00000  Uiso   1.00
O13    O     0.60631   0.26607   1.00008   0.00000  Uiso   1.00
O14    O     0.64560   0.26603   1.00008   0.00000  Uiso   1.00
H14    H     0.66124   0.30046   1.00008   0.00000  Uiso   1.00
H15    H     0.55230   0.40924   0.99997   0.00000  Uiso   1.00
O15    O     0.51782   0.39228  -0.00003   0.00000  Uiso   1.00
O16    O     0.51781   0.35573  -0.00001   0.00000  Uiso   1.00
H16    H     0.55229   0.33876   0.00002   0.00000  Uiso   1.00
Ni2    Ni    0.62601   0.37399   1.00004   0.00000  Uiso   1.00
C65    C     0.60602   0.55221   0.00001   0.00000  Uiso   1.00
C66    C     0.61626   0.53528   0.00000   0.00000  Uiso   1.00
C67    C     0.63580   0.53528   0.00002   0.00000  Uiso   1.00
C68    C     0.64604   0.55222   0.00003   0.00000  Uiso   1.00
C69    C     0.63562   0.56892   0.00003   0.00000  Uiso   1.00
C70    C     0.61643   0.56891   0.00002   0.00000  Uiso   1.00
C71    C     0.61098   0.58750   0.00002   0.00000  Uiso   1.00
N17    N     0.62602   0.59933   0.00004   0.00000  Uiso   1.00
C72    C     0.64106   0.58751   0.00005   0.00000  Uiso   1.00
N18    N     0.65908   0.59296   1.00006   0.00000  Uiso   1.00
C73    C     0.66452   0.61099   1.00007   0.00000  Uiso   1.00
N19    N     0.65268   0.62602   0.00006   0.00000  Uiso   1.00
C74    C     0.66452   0.64105   0.00008   0.00000  Uiso   1.00
C75    C     0.68311   0.63560   0.00008   0.00000  Uiso   1.00
C76    C     0.68311   0.61645   1.00008   0.00000  Uiso   1.00
N20    N     0.62601   0.65268   0.00006   0.00000  Uiso   1.00
C77    C     0.64104   0.66452   0.00007   0.00000  Uiso   1.00
N21    N     0.65906   0.65908   0.00008   0.00000  Uiso   1.00
C78    C     0.63557   0.68311   0.00008   0.00000  Uiso   1.00
C79    C     0.61643   0.68310   0.00007   0.00000  Uiso   1.00
C80    C     0.61097   0.66452   0.00006   0.00000  Uiso   1.00
C81    C     0.69974   0.60600   1.00008   0.00000  Uiso   1.00
C82    C     0.71683   0.61598   1.00009   0.00000  Uiso   1.00
C83    C     0.71684   0.63605   1.00010   0.00000  Uiso   1.00
C84    C     0.69975   0.64604   0.00010   0.00000  Uiso   1.00
C85    C     0.60597   0.69973   0.00007   0.00000  Uiso   1.00
C86    C     0.61593   0.71682   0.00008   0.00000  Uiso   1.00
C87    C     0.63601   0.71684   0.00009   0.00000  Uiso   1.00
C88    C     0.64600   0.69976   0.00009   0.00000  Uiso   1.00
N22    N     0.59933   0.62600   0.00004   0.00000  Uiso   1.00
C89    C     0.58750   0.64105   1.00005   0.00000  Uiso   1.00
N23    N     0.59295   0.65907   1.00005   0.00000  Uiso   1.00
C90    C     0.56892   0.63560   1.00003   0.00000  Uiso   1.00
C91    C     0.56892   0.61641   0.00002   0.00000  Uiso   1.00
C92    C     0.58750   0.61096   0.00002   0.00000  Uiso   1.00
C93    C     0.55222   0.60599   0.00000   0.00000  Uiso   1.00
C94    C     0.53528   0.61623  -0.00001   0.00000  Uiso   1.00
C95    C     0.53528   0.63577   1.00000   0.00000  Uiso   1.00
C96    C     0.55222   0.64601   1.00003   0.00000  Uiso   1.00
N24    N     0.59295   0.59294   0.00001   0.00000  Uiso   1.00
H17    H     0.59079   0.55229  -0.00001   0.00000  Uiso   1.00
O17    O     0.60776   0.51781  -0.00002   0.00000  Uiso   1.00
O18    O     0.64431   0.51782   0.00002   0.00000  Uiso   1.00
H18    H     0.66127   0.55230   0.00005   0.00000  Uiso   1.00
H19    H     0.69951   0.59077   1.00007   0.00000  Uiso   1.00
O19    O     0.73394   0.60636   1.00009   0.00000  Uiso   1.00
O20    O     0.73396   0.64565   1.00011   0.00000  Uiso   1.00
H20    H     0.69952   0.66127   0.00010   0.00000  Uiso   1.00
H21    H     0.59074   0.69949   1.00006   0.00000  Uiso   1.00
O21    O     0.60631   0.73393   0.00008   0.00000  Uiso   1.00
O22    O     0.64560   0.73397   0.00010   0.00000  Uiso   1.00
H22    H     0.66124   0.69955   0.00010   0.00000  Uiso   1.00
H23    H     0.55230   0.59076  -0.00001   0.00000  Uiso   1.00
O23    O     0.51782   0.60772   0.99997   0.00000  Uiso   1.00
O24    O     0.51782   0.64427   1.00000   0.00000  Uiso   1.00
H24    H     0.55229   0.66124   1.00003   0.00000  Uiso   1.00
Ni3    Ni    0.62601   0.62601   0.00004   0.00000  Uiso   1.00
C97    C     0.39398   0.55221   1.00000   0.00000  Uiso   1.00
C98    C     0.38374   0.53528   1.00000   0.00000  Uiso   1.00
C99    C     0.36420   0.53528   1.00002   0.00000  Uiso   1.00
C100   C     0.35396   0.55222   0.00003   0.00000  Uiso   1.00
C101   C     0.36438   0.56892   1.00003   0.00000  Uiso   1.00
C102   C     0.38357   0.56891   1.00001   0.00000  Uiso   1.00
C103   C     0.38902   0.58750   1.00001   0.00000  Uiso   1.00
N25    N     0.37398   0.59933   1.00004   0.00000  Uiso   1.00
C104   C     0.35894   0.58750   1.00005   0.00000  Uiso   1.00
N26    N     0.34092   0.59296   0.00006   0.00000  Uiso   1.00
C105   C     0.33548   0.61099   0.00008   0.00000  Uiso   1.00
N27    N     0.34732   0.62602   1.00007   0.00000  Uiso   1.00
C106   C     0.33548   0.64105   1.00008   0.00000  Uiso   1.00
C107   C     0.31689   0.63560   0.00010   0.00000  Uiso   1.00
C108   C     0.31689   0.61645   0.00010   0.00000  Uiso   1.00
N28    N     0.37399   0.65268   1.00006   0.00000  Uiso   1.00
C109   C     0.35896   0.66452   1.00007   0.00000  Uiso   1.00
N29    N     0.34094   0.65908   1.00008   0.00000  Uiso   1.00
C110   C     0.36443   0.68311   1.00007   0.00000  Uiso   1.00
C111   C     0.38358   0.68310   0.00006   0.00000  Uiso   1.00
C112   C     0.38903   0.66452   0.00005   0.00000  Uiso   1.00
C113   C     0.30026   0.60600   0.00010   0.00000  Uiso   1.00
C114   C     0.28317   0.61598   0.00012   0.00000  Uiso   1.00
C115   C     0.28316   0.63605   0.00012   0.00000  Uiso   1.00
C116   C     0.30025   0.64604   0.00011   0.00000  Uiso   1.00
C117   C     0.39403   0.69973   0.00007   0.00000  Uiso   1.00
C118   C     0.38407   0.71682   1.00007   0.00000  Uiso   1.00
C119   C     0.36399   0.71684   1.00008   0.00000  Uiso   1.00
C120   C     0.35400   0.69976   1.00008   0.00000  Uiso   1.00
N30    N     0.40067   0.62600   1.00002   0.00000  Uiso   1.00
C121   C     0.41250   0.64105   0.00003   0.00000  Uiso   1.00
N31    N     0.40705   0.65907   0.00004   0.00000  Uiso   1.00
C122   C     0.43109   0.63559   0.00002   0.00000  Uiso   1.00
C123   C     0.43108   0.61641   1.00000   0.00000  Uiso   1.00
C124   C     0.41250   0.61096   1.00001   0.00000  Uiso   1.00
C125   C     0.44778   0.60599   0.99999   0.00000  Uiso   1.00
C126   C     0.46472   0.61623  -0.00002   0.00000  Uiso   1.00
C127   C     0.46472   0.63577  -0.00001   0.00000  Uiso   1.00
C128   C     0.44778   0.64601   0.00001   0.00000  Uiso   1.00
N32    N     0.40705   0.59294   1.00000   0.00000  Uiso   1.00
H25    H     0.40921   0.55229   0.99998   0.00000  Uiso   1.00
O25    O     0.39224   0.51781   0.99998   0.00000  Uiso   1.00
O26    O     0.35569   0.51782   1.00002   0.00000  Uiso   1.00
H26    H     0.33873   0.55230   0.00005   0.00000  Uiso   1.00
H27    H     0.30049   0.59077   0.00010   0.00000  Uiso   1.00
O27    O     0.26606   0.60636   0.00013   0.00000  Uiso   1.00
O28    O     0.26604   0.64565   0.00013   0.00000  Uiso   1.00
H28    H     0.30048   0.66127   0.00011   0.00000  Uiso   1.00
H29    H     0.40926   0.69949   0.00007   0.00000  Uiso   1.00
O29    O     0.39370   0.73393   1.00007   0.00000  Uiso   1.00
O30    O     0.35440   0.73397   1.00009   0.00000  Uiso   1.00
H30    H     0.33876   0.69954   1.00009   0.00000  Uiso   1.00
H31    H     0.44770   0.59076   0.99997   0.00000  Uiso   1.00
O31    O     0.48218   0.60772  -0.00004   0.00000  Uiso   1.00
O32    O     0.48218   0.64427  -0.00001   0.00000  Uiso   1.00
H32    H     0.44771   0.66124   0.00001   0.00000  Uiso   1.00
Ni4    Ni    0.37399   0.62601   1.00003   0.00000  Uiso   1.00
C129   C     0.10601   0.37487   0.70730   0.00000  Uiso   1.00
C130   C     0.11625   0.37482   0.64011   0.00000  Uiso   1.00
C131   C     0.13579   0.37470   0.64011   0.00000  Uiso   1.00
C132   C     0.14602   0.37463   0.70731   0.00000  Uiso   1.00
C133   C     0.13561   0.37469   0.77357   0.00000  Uiso   1.00
C134   C     0.11642   0.37480   0.77356   0.00000  Uiso   1.00
C135   C     0.11097   0.37482   0.84730   0.00000  Uiso   1.00
N33    N     0.12601   0.37473   0.89425   0.00000  Uiso   1.00
C136   C     0.14105   0.37464   0.84731   0.00000  Uiso   1.00
N34    N     0.15907   0.37452   0.86895   0.00000  Uiso   1.00
C137   C     0.16452   0.37447   0.94046   0.00000  Uiso   1.00
N35    N     0.15268   0.37455   0.00011   0.00000  Uiso   1.00
C138   C     0.16452   0.37447   0.05975   0.00000  Uiso   1.00
C139   C     0.18311   0.37434   0.03809   0.00000  Uiso   1.00
C140   C     0.18311   0.37434   0.96213   0.00000  Uiso   1.00
N36    N     0.12601   0.37473   0.10597   0.00000  Uiso   1.00
C141   C     0.14105   0.37464   0.15291   0.00000  Uiso   1.00
N37    N     0.15908   0.37452   0.13127   0.00000  Uiso   1.00
C142   C     0.13561   0.37469   0.22665   0.00000  Uiso   1.00
C143   C     0.11642   0.37480   0.22666   0.00000  Uiso   1.00
C144   C     0.11097   0.37482   0.15292   0.00000  Uiso   1.00
C145   C     0.19974   0.37423   0.92068   0.00000  Uiso   1.00
C146   C     0.21683   0.37413   0.96028   0.00000  Uiso   1.00
C147   C     0.21683   0.37413   0.03993   0.00000  Uiso   1.00
C148   C     0.19974   0.37424   0.07953   0.00000  Uiso   1.00
C149   C     0.10601   0.37487   0.29292   0.00000  Uiso   1.00
C150   C     0.11625   0.37482   0.36011   0.00000  Uiso   1.00
C151   C     0.13579   0.37470   0.36011   0.00000  Uiso   1.00
C152   C     0.14602   0.37463   0.29291   0.00000  Uiso   1.00
N38    N     0.09933   0.37489   0.00011   0.00000  Uiso   1.00
C153   C     0.08750   0.37494   0.05980   0.00000  Uiso   1.00
N39    N     0.09295   0.37492   0.13131   0.00000  Uiso   1.00
C154   C     0.06891   0.37503   0.03818   0.00000  Uiso   1.00
C155   C     0.06891   0.37503   0.96205   0.00000  Uiso   1.00
C156   C     0.08750   0.37494   0.94042   0.00000  Uiso   1.00
C157   C     0.05222   0.37508   0.92072   0.00000  Uiso   1.00
C158   C     0.03528   0.37513   0.96136   0.00000  Uiso   1.00
C159   C     0.03528   0.37513   0.03888   0.00000  Uiso   1.00
C160   C     0.05222   0.37508   0.07951   0.00000  Uiso   1.00
N40    N     0.09295   0.37492   0.86891   0.00000  Uiso   1.00
H33    H     0.09078   0.37497   0.70759   0.00000  Uiso   1.00
O33    O     0.10774   0.37488   0.57080   0.00000  Uiso   1.00
O34    O     0.14429   0.37466   0.57081   0.00000  Uiso   1.00
H34    H     0.16126   0.37454   0.70762   0.00000  Uiso   1.00
H35    H     0.19952   0.37424   0.86023   0.00000  Uiso   1.00
O35    O     0.23395   0.37404   0.92215   0.00000  Uiso   1.00
O36    O     0.23395   0.37404   0.07806   0.00000  Uiso   1.00
H36    H     0.19952   0.37424   0.13998   0.00000  Uiso   1.00
H37    H     0.09078   0.37496   0.29263   0.00000  Uiso   1.00
O37    O     0.10774   0.37488   0.42942   0.00000  Uiso   1.00
O38    O     0.14429   0.37466   0.42941   0.00000  Uiso   1.00
H38    H     0.16126   0.37454   0.29260   0.00000  Uiso   1.00
H39    H     0.05229   0.37507   0.86028   0.00000  Uiso   1.00
O39    O     0.01782   0.37516   0.92760   0.00000  Uiso   1.00
O40    O     0.01782   0.37516   0.07263   0.00000  Uiso   1.00
H40    H     0.05229   0.37507   0.13995   0.00000  Uiso   1.00
Ni5    Ni    0.12601   0.37472   0.00011   0.00000  Uiso   1.00
C161   C     0.62565   0.19974   0.07951   0.00000  Uiso   1.00
C162   C     0.62578   0.21683   0.03991   0.00000  Uiso   1.00
C163   C     0.62578   0.21683   0.96025   0.00000  Uiso   1.00
C164   C     0.62565   0.19974   0.92065   0.00000  Uiso   1.00
C165   C     0.62552   0.18311   0.96210   0.00000  Uiso   1.00
C166   C     0.62552   0.18311   0.03806   0.00000  Uiso   1.00
C167   C     0.62537   0.16452   0.05972   0.00000  Uiso   1.00
N41    N     0.62528   0.15268   0.00008   0.00000  Uiso   1.00
C168   C     0.62537   0.16452   0.94044   0.00000  Uiso   1.00
N42    N     0.62532   0.15908   0.86892   0.00000  Uiso   1.00
C169   C     0.62518   0.14105   0.84729   0.00000  Uiso   1.00
N43    N     0.62508   0.12601   0.89423   0.00000  Uiso   1.00
C170   C     0.62497   0.11097   0.84727   0.00000  Uiso   1.00
C171   C     0.62499   0.11642   0.77353   0.00000  Uiso   1.00
C172   C     0.62513   0.13561   0.77354   0.00000  Uiso   1.00
N44    N     0.62490   0.09933   0.00008   0.00000  Uiso   1.00
C173   C     0.62483   0.08750   0.94039   0.00000  Uiso   1.00
N45    N     0.62486   0.09295   0.86888   0.00000  Uiso   1.00
C174   C     0.62473   0.06892   0.96202   0.00000  Uiso   1.00
C175   C     0.62473   0.06892   0.03815   0.00000  Uiso   1.00
C176   C     0.62483   0.08750   0.05977   0.00000  Uiso   1.00
C177   C     0.62518   0.14602   0.70728   0.00000  Uiso   1.00
C178   C     0.62510   0.13579   0.64009   0.00000  Uiso   1.00
C179   C     0.62497   0.11625   0.64008   0.00000  Uiso   1.00
C180   C     0.62491   0.10601   0.70727   0.00000  Uiso   1.00
C181   C     0.62467   0.05222   0.07948   0.00000  Uiso   1.00
C182   C     0.62462   0.03528   0.03884   0.00000  Uiso   1.00
C183   C     0.62462   0.03528   0.96132   0.00000  Uiso   1.00
C184   C     0.62467   0.05222   0.92069   0.00000  Uiso   1.00
N46    N     0.62508   0.12601   0.10594   0.00000  Uiso   1.00
C185   C     0.62497   0.11097   0.15289   0.00000  Uiso   1.00
N47    N     0.62486   0.09295   0.13128   0.00000  Uiso   1.00
C186   C     0.62499   0.11642   0.22663   0.00000  Uiso   1.00
C187   C     0.62512   0.13561   0.22662   0.00000  Uiso   1.00
C188   C     0.62518   0.14105   0.15288   0.00000  Uiso   1.00
C189   C     0.62518   0.14602   0.29288   0.00000  Uiso   1.00
C190   C     0.62510   0.13579   0.36008   0.00000  Uiso   1.00
C191   C     0.62496   0.11625   0.36008   0.00000  Uiso   1.00
C192   C     0.62491   0.10601   0.29289   0.00000  Uiso   1.00
N48    N     0.62532   0.15908   0.13124   0.00000  Uiso   1.00
H41    H     0.62564   0.19952   0.13995   0.00000  Uiso   1.00
O41    O     0.62588   0.23395   0.07804   0.00000  Uiso   1.00
O42    O     0.62588   0.23395   0.92213   0.00000  Uiso   1.00
H42    H     0.62564   0.19952   0.86021   0.00000  Uiso   1.00
H43    H     0.62529   0.16126   0.70759   0.00000  Uiso   1.00
O43    O     0.62514   0.14429   0.57078   0.00000  Uiso   1.00
O44    O     0.62489   0.10774   0.57077   0.00000  Uiso   1.00
H44    H     0.62480   0.09078   0.70757   0.00000  Uiso   1.00
H45    H     0.62468   0.05229   0.13992   0.00000  Uiso   1.00
O45    O     0.62458   0.01782   0.07260   0.00000  Uiso   1.00
O46    O     0.62458   0.01782   0.92757   0.00000  Uiso   1.00
H46    H     0.62468   0.05229   0.86025   0.00000  Uiso   1.00
H47    H     0.62529   0.16126   0.29257   0.00000  Uiso   1.00
O47    O     0.62514   0.14429   0.42938   0.00000  Uiso   1.00
O48    O     0.62489   0.10774   0.42939   0.00000  Uiso   1.00
H48    H     0.62480   0.09078   0.29259   0.00000  Uiso   1.00
Ni6    Ni    0.62508   0.12601   0.00008   0.00000  Uiso   1.00
C193   C     0.89399   0.62513   0.70730   0.00000  Uiso   1.00
C194   C     0.88375   0.62518   0.64011   0.00000  Uiso   1.00
C195   C     0.86421   0.62529   0.64011   0.00000  Uiso   1.00
C196   C     0.85398   0.62537   0.70731   0.00000  Uiso   1.00
C197   C     0.86439   0.62532   0.77357   0.00000  Uiso   1.00
C198   C     0.88358   0.62520   0.77356   0.00000  Uiso   1.00
C199   C     0.88903   0.62518   0.84730   0.00000  Uiso   1.00
N49    N     0.87399   0.62527   0.89425   0.00000  Uiso   1.00
C200   C     0.85895   0.62536   0.84731   0.00000  Uiso   1.00
N50    N     0.84093   0.62548   0.86895   0.00000  Uiso   1.00
C201   C     0.83548   0.62553   0.94047   0.00000  Uiso   1.00
N51    N     0.84732   0.62545   0.00011   0.00000  Uiso   1.00
C202   C     0.83548   0.62553   0.05975   0.00000  Uiso   1.00
C203   C     0.81689   0.62566   0.03809   0.00000  Uiso   1.00
C204   C     0.81689   0.62566   0.96213   0.00000  Uiso   1.00
N52    N     0.87399   0.62527   0.10597   0.00000  Uiso   1.00
C205   C     0.85895   0.62536   0.15291   0.00000  Uiso   1.00
N53    N     0.84092   0.62548   0.13127   0.00000  Uiso   1.00
C206   C     0.86439   0.62532   0.22665   0.00000  Uiso   1.00
C207   C     0.88358   0.62520   0.22666   0.00000  Uiso   1.00
C208   C     0.88903   0.62518   0.15292   0.00000  Uiso   1.00
C209   C     0.80026   0.62577   0.92068   0.00000  Uiso   1.00
C210   C     0.78317   0.62587   0.96028   0.00000  Uiso   1.00
C211   C     0.78317   0.62587   0.03993   0.00000  Uiso   1.00
C212   C     0.80026   0.62577   0.07954   0.00000  Uiso   1.00
C213   C     0.89399   0.62513   0.29292   0.00000  Uiso   1.00
C214   C     0.88375   0.62518   0.36011   0.00000  Uiso   1.00
C215   C     0.86421   0.62529   0.36011   0.00000  Uiso   1.00
C216   C     0.85398   0.62537   0.29291   0.00000  Uiso   1.00
N54    N     0.90067   0.62511   0.00011   0.00000  Uiso   1.00
C217   C     0.91250   0.62506   0.05980   0.00000  Uiso   1.00
N55    N     0.90705   0.62508   0.13131   0.00000  Uiso   1.00
C218   C     0.93109   0.62497   0.03818   0.00000  Uiso   1.00
C219   C     0.93109   0.62497   0.96205   0.00000  Uiso   1.00
C220   C     0.91250   0.62506   0.94042   0.00000  Uiso   1.00
C221   C     0.94778   0.62492   0.92072   0.00000  Uiso   1.00
C222   C     0.96472   0.62487   0.96136   0.00000  Uiso   1.00
C223   C     0.96472   0.62487   0.03888   0.00000  Uiso   1.00
C224   C     0.94778   0.62492   0.07951   0.00000  Uiso   1.00
N56    N     0.90705   0.62508   0.86891   0.00000  Uiso   1.00
H49    H     0.90922   0.62503   0.70760   0.00000  Uiso   1.00
O49    O     0.89226   0.62511   0.57080   0.00000  Uiso   1.00
O50    O     0.85571   0.62533   0.57081   0.00000  Uiso   1.00
H50    H     0.83874   0.62546   0.70762   0.00000  Uiso   1.00
H51    H     0.80048   0.62576   0.86024   0.00000  Uiso   1.00
O51    O     0.76605   0.62596   0.92215   0.00000  Uiso   1.00
O52    O     0.76605   0.62596   0.07806   0.00000  Uiso   1.00
H52    H     0.80048   0.62576   0.13998   0.00000  Uiso   1.00
H53    H     0.90922   0.62503   0.29262   0.00000  Uiso   1.00
O53    O     0.89226   0.62511   0.42942   0.00000  Uiso   1.00
O54    O     0.85571   0.62533   0.42941   0.00000  Uiso   1.00
H54    H     0.83874   0.62546   0.29260   0.00000  Uiso   1.00
H55    H     0.94771   0.62493   0.86028   0.00000  Uiso   1.00
O55    O     0.98218   0.62484   0.92760   0.00000  Uiso   1.00
O56    O     0.98218   0.62484   0.07263   0.00000  Uiso   1.00
H56    H     0.94771   0.62493   0.13995   0.00000  Uiso   1.00
Ni7    Ni    0.87399   0.62528   0.00011   0.00000  Uiso   1.00
C225   C     0.37435   0.80026   0.07951   0.00000  Uiso   1.00
C226   C     0.37423   0.78317   0.03991   0.00000  Uiso   1.00
C227   C     0.37423   0.78317   0.96025   0.00000  Uiso   1.00
C228   C     0.37435   0.80026   0.92065   0.00000  Uiso   1.00
C229   C     0.37448   0.81689   0.96210   0.00000  Uiso   1.00
C230   C     0.37448   0.81689   0.03806   0.00000  Uiso   1.00
C231   C     0.37463   0.83548   0.05972   0.00000  Uiso   1.00
N57    N     0.37473   0.84732   0.00008   0.00000  Uiso   1.00
C232   C     0.37463   0.83548   0.94044   0.00000  Uiso   1.00
N58    N     0.37468   0.84092   0.86892   0.00000  Uiso   1.00
C233   C     0.37483   0.85895   0.84729   0.00000  Uiso   1.00
N59    N     0.37492   0.87399   0.89423   0.00000  Uiso   1.00
C234   C     0.37503   0.88903   0.84727   0.00000  Uiso   1.00
C235   C     0.37501   0.88358   0.77353   0.00000  Uiso   1.00
C236   C     0.37488   0.86439   0.77354   0.00000  Uiso   1.00
N60    N     0.37511   0.90067   0.00008   0.00000  Uiso   1.00
C237   C     0.37517   0.91250   0.94039   0.00000  Uiso   1.00
N61    N     0.37514   0.90705   0.86888   0.00000  Uiso   1.00
C238   C     0.37527   0.93108   0.96202   0.00000  Uiso   1.00
C239   C     0.37527   0.93108   0.03815   0.00000  Uiso   1.00
C240   C     0.37517   0.91250   0.05977   0.00000  Uiso   1.00
C241   C     0.37481   0.85398   0.70728   0.00000  Uiso   1.00
C242   C     0.37490   0.86421   0.64009   0.00000  Uiso   1.00
C243   C     0.37503   0.88375   0.64008   0.00000  Uiso   1.00
C244   C     0.37509   0.89399   0.70727   0.00000  Uiso   1.00
C245   C     0.37533   0.94778   0.07948   0.00000  Uiso   1.00
C246   C     0.37538   0.96472   0.03884   0.00000  Uiso   1.00
C247   C     0.37538   0.96472   0.96132   0.00000  Uiso   1.00
C248   C     0.37533   0.94778   0.92069   0.00000  Uiso   1.00
N62    N     0.37492   0.87399   0.10594   0.00000  Uiso   1.00
C249   C     0.37503   0.88903   0.15289   0.00000  Uiso   1.00
N63    N     0.37514   0.90705   0.13128   0.00000  Uiso   1.00
C250   C     0.37501   0.88358   0.22663   0.00000  Uiso   1.00
C251   C     0.37488   0.86439   0.22662   0.00000  Uiso   1.00
C252   C     0.37483   0.85895   0.15288   0.00000  Uiso   1.00
C253   C     0.37482   0.85398   0.29288   0.00000  Uiso   1.00
C254   C     0.37490   0.86421   0.36008   0.00000  Uiso   1.00
C255   C     0.37503   0.88375   0.36008   0.00000  Uiso   1.00
C256   C     0.37509   0.89399   0.29289   0.00000  Uiso   1.00
N64    N     0.37469   0.84092   0.13124   0.00000  Uiso   1.00
H57    H     0.37436   0.80048   0.13995   0.00000  Uiso   1.00
O57    O     0.37412   0.76605   0.07804   0.00000  Uiso   1.00
O58    O     0.37412   0.76605   0.92213   0.00000  Uiso   1.00
H58    H     0.37436   0.80048   0.86021   0.00000  Uiso   1.00
H59    H     0.37471   0.83874   0.70759   0.00000  Uiso   1.00
O59    O     0.37485   0.85571   0.57078   0.00000  Uiso   1.00
O60    O     0.37510   0.89226   0.57077   0.00000  Uiso   1.00
H60    H     0.37519   0.90922   0.70757   0.00000  Uiso   1.00
H61    H     0.37532   0.94771   0.13992   0.00000  Uiso   1.00
O61    O     0.37542   0.98218   0.07260   0.00000  Uiso   1.00
O62    O     0.37542   0.98218   0.92757   0.00000  Uiso   1.00
H62    H     0.37531   0.94771   0.86025   0.00000  Uiso   1.00
H63    H     0.37471   0.83874   0.29257   0.00000  Uiso   1.00
O63    O     0.37485   0.85571   0.42938   0.00000  Uiso   1.00
O64    O     0.37510   0.89226   0.42939   0.00000  Uiso   1.00
H64    H     0.37520   0.90922   0.29260   0.00000  Uiso   1.00
Ni8    Ni    0.37492   0.87399   0.00008   0.00000  Uiso   1.00
C257   C     0.10601   0.62513   0.29294   0.00000  Uiso   1.00
C258   C     0.11625   0.62518   0.36013   0.00000  Uiso   1.00
C259   C     0.13579   0.62529   0.36013   0.00000  Uiso   1.00
C260   C     0.14602   0.62537   0.29293   0.00000  Uiso   1.00
C261   C     0.13561   0.62531   0.22667   0.00000  Uiso   1.00
C262   C     0.11642   0.62520   0.22668   0.00000  Uiso   1.00
C263   C     0.11097   0.62518   0.15294   0.00000  Uiso   1.00
N65    N     0.12601   0.62527   0.10599   0.00000  Uiso   1.00
C264   C     0.14105   0.62536   0.15293   0.00000  Uiso   1.00
N66    N     0.15908   0.62548   0.13129   0.00000  Uiso   1.00
C265   C     0.16452   0.62553   0.05978   0.00000  Uiso   1.00
N67    N     0.15268   0.62545   0.00013   0.00000  Uiso   1.00
C266   C     0.16452   0.62553   0.94049   0.00000  Uiso   1.00
C267   C     0.18311   0.62566   0.96215   0.00000  Uiso   1.00
C268   C     0.18311   0.62566   0.03811   0.00000  Uiso   1.00
N68    N     0.12601   0.62527   0.89428   0.00000  Uiso   1.00
C269   C     0.14105   0.62536   0.84734   0.00000  Uiso   1.00
N69    N     0.15908   0.62548   0.86897   0.00000  Uiso   1.00
C270   C     0.13561   0.62532   0.77359   0.00000  Uiso   1.00
C271   C     0.11642   0.62520   0.77358   0.00000  Uiso   1.00
C272   C     0.11097   0.62518   0.84732   0.00000  Uiso   1.00
C273   C     0.19974   0.62577   0.07956   0.00000  Uiso   1.00
C274   C     0.21683   0.62587   0.03996   0.00000  Uiso   1.00
C275   C     0.21683   0.62587   0.96030   0.00000  Uiso   1.00
C276   C     0.19974   0.62577   0.92070   0.00000  Uiso   1.00
C277   C     0.10601   0.62513   0.70732   0.00000  Uiso   1.00
C278   C     0.11625   0.62518   0.64013   0.00000  Uiso   1.00
C279   C     0.13579   0.62529   0.64014   0.00000  Uiso   1.00
C280   C     0.14603   0.62537   0.70733   0.00000  Uiso   1.00
N70    N     0.09933   0.62511   0.00013   0.00000  Uiso   1.00
C281   C     0.08750   0.62506   0.94044   0.00000  Uiso   1.00
N71    N     0.09295   0.62508   0.86893   0.00000  Uiso   1.00
C282   C     0.06892   0.62497   0.96207   0.00000  Uiso   1.00
C283   C     0.06891   0.62497   0.03819   0.00000  Uiso   1.00
C284   C     0.08750   0.62506   0.05982   0.00000  Uiso   1.00
C285   C     0.05222   0.62492   0.07952   0.00000  Uiso   1.00
C286   C     0.03528   0.62487   0.03889   0.00000  Uiso   1.00
C287   C     0.03528   0.62487   0.96137   0.00000  Uiso   1.00
C288   C     0.05222   0.62492   0.92073   0.00000  Uiso   1.00
N72    N     0.09295   0.62508   0.13133   0.00000  Uiso   1.00
H65    H     0.09078   0.62503   0.29265   0.00000  Uiso   1.00
O65    O     0.10774   0.62511   0.42944   0.00000  Uiso   1.00
O66    O     0.14429   0.62533   0.42943   0.00000  Uiso   1.00
H66    H     0.16126   0.62546   0.29262   0.00000  Uiso   1.00
H67    H     0.19952   0.62576   0.14000   0.00000  Uiso   1.00
O67    O     0.23395   0.62596   0.07809   0.00000  Uiso   1.00
O68    O     0.23395   0.62596   0.92217   0.00000  Uiso   1.00
H68    H     0.19952   0.62576   0.86026   0.00000  Uiso   1.00
H69    H     0.09078   0.62503   0.70762   0.00000  Uiso   1.00
O69    O     0.10774   0.62511   0.57082   0.00000  Uiso   1.00
O70    O     0.14429   0.62533   0.57083   0.00000  Uiso   1.00
H70    H     0.16126   0.62546   0.70764   0.00000  Uiso   1.00
H71    H     0.05229   0.62493   0.13996   0.00000  Uiso   1.00
O71    O     0.01782   0.62484   0.07264   0.00000  Uiso   1.00
O72    O     0.01782   0.62484   0.92761   0.00000  Uiso   1.00
H72    H     0.05229   0.62493   0.86029   0.00000  Uiso   1.00
Ni9    Ni    0.12601   0.62528   0.00013   0.00000  Uiso   1.00
C289   C     0.37435   0.19974   0.92066   0.00000  Uiso   1.00
C290   C     0.37422   0.21683   0.96026   0.00000  Uiso   1.00
C291   C     0.37423   0.21683   0.03992   0.00000  Uiso   1.00
C292   C     0.37435   0.19974   0.07952   0.00000  Uiso   1.00
C293   C     0.37448   0.18311   0.03808   0.00000  Uiso   1.00
C294   C     0.37448   0.18311   0.96211   0.00000  Uiso   1.00
C295   C     0.37463   0.16452   0.94045   0.00000  Uiso   1.00
N73    N     0.37473   0.15268   0.00009   0.00000  Uiso   1.00
C296   C     0.37463   0.16452   0.05974   0.00000  Uiso   1.00
N74    N     0.37469   0.15907   0.13126   0.00000  Uiso   1.00
C297   C     0.37483   0.14105   0.15289   0.00000  Uiso   1.00
N75    N     0.37492   0.12601   0.10595   0.00000  Uiso   1.00
C298   C     0.37503   0.11097   0.15290   0.00000  Uiso   1.00
C299   C     0.37501   0.11642   0.22664   0.00000  Uiso   1.00
C300   C     0.37488   0.13561   0.22663   0.00000  Uiso   1.00
N76    N     0.37511   0.09933   0.00009   0.00000  Uiso   1.00
C301   C     0.37517   0.08750   0.05978   0.00000  Uiso   1.00
N77    N     0.37514   0.09295   0.13129   0.00000  Uiso   1.00
C302   C     0.37527   0.06891   0.03816   0.00000  Uiso   1.00
C303   C     0.37527   0.06891   0.96203   0.00000  Uiso   1.00
C304   C     0.37517   0.08750   0.94041   0.00000  Uiso   1.00
C305   C     0.37482   0.14602   0.29289   0.00000  Uiso   1.00
C306   C     0.37490   0.13579   0.36009   0.00000  Uiso   1.00
C307   C     0.37503   0.11625   0.36009   0.00000  Uiso   1.00
C308   C     0.37509   0.10601   0.29290   0.00000  Uiso   1.00
C309   C     0.37533   0.05222   0.92070   0.00000  Uiso   1.00
C310   C     0.37538   0.03528   0.96133   0.00000  Uiso   1.00
C311   C     0.37538   0.03528   0.03885   0.00000  Uiso   1.00
C312   C     0.37533   0.05222   0.07948   0.00000  Uiso   1.00
N78    N     0.37492   0.12601   0.89424   0.00000  Uiso   1.00
C313   C     0.37503   0.11097   0.84728   0.00000  Uiso   1.00
N79    N     0.37514   0.09295   0.86890   0.00000  Uiso   1.00
C314   C     0.37501   0.11642   0.77354   0.00000  Uiso   1.00
C315   C     0.37488   0.13561   0.77355   0.00000  Uiso   1.00
C316   C     0.37482   0.14105   0.84730   0.00000  Uiso   1.00
C317   C     0.37481   0.14602   0.70730   0.00000  Uiso   1.00
C318   C     0.37490   0.13579   0.64010   0.00000  Uiso   1.00
C319   C     0.37503   0.11625   0.64009   0.00000  Uiso   1.00
C320   C     0.37509   0.10601   0.70728   0.00000  Uiso   1.00
N80    N     0.37468   0.15907   0.86893   0.00000  Uiso   1.00
H73    H     0.37435   0.19952   0.86022   0.00000  Uiso   1.00
O73    O     0.37412   0.23395   0.92214   0.00000  Uiso   1.00
O74    O     0.37412   0.23395   0.07805   0.00000  Uiso   1.00
H74    H     0.37436   0.19952   0.13996   0.00000  Uiso   1.00
H75    H     0.37471   0.16126   0.29258   0.00000  Uiso   1.00
O75    O     0.37485   0.14429   0.42940   0.00000  Uiso   1.00
O76    O     0.37510   0.10774   0.42940   0.00000  Uiso   1.00
H76    H     0.37520   0.09078   0.29261   0.00000  Uiso   1.00
H77    H     0.37532   0.05229   0.86026   0.00000  Uiso   1.00
O77    O     0.37542   0.01782   0.92758   0.00000  Uiso   1.00
O78    O     0.37542   0.01782   0.07260   0.00000  Uiso   1.00
H78    H     0.37532   0.05229   0.13992   0.00000  Uiso   1.00
H79    H     0.37471   0.16126   0.70760   0.00000  Uiso   1.00
O79    O     0.37485   0.14429   0.57079   0.00000  Uiso   1.00
O80    O     0.37510   0.10774   0.57079   0.00000  Uiso   1.00
H80    H     0.37520   0.09078   0.70758   0.00000  Uiso   1.00
Ni10   Ni    0.37492   0.12601   0.00009   0.00000  Uiso   1.00
C321   C     0.89399   0.37487   0.29294   0.00000  Uiso   1.00
C322   C     0.88375   0.37482   0.36013   0.00000  Uiso   1.00
C323   C     0.86421   0.37470   0.36013   0.00000  Uiso   1.00
C324   C     0.85398   0.37463   0.29293   0.00000  Uiso   1.00
C325   C     0.86439   0.37469   0.22667   0.00000  Uiso   1.00
C326   C     0.88358   0.37480   0.22668   0.00000  Uiso   1.00
C327   C     0.88903   0.37482   0.15294   0.00000  Uiso   1.00
N81    N     0.87399   0.37473   0.10599   0.00000  Uiso   1.00
C328   C     0.85895   0.37464   0.15293   0.00000  Uiso   1.00
N82    N     0.84092   0.37452   0.13129   0.00000  Uiso   1.00
C329   C     0.83548   0.37447   0.05978   0.00000  Uiso   1.00
N83    N     0.84732   0.37456   0.00013   0.00000  Uiso   1.00
C330   C     0.83548   0.37447   0.94049   0.00000  Uiso   1.00
C331   C     0.81689   0.37434   0.96215   0.00000  Uiso   1.00
C332   C     0.81689   0.37434   0.03811   0.00000  Uiso   1.00
N84    N     0.87399   0.37473   0.89428   0.00000  Uiso   1.00
C333   C     0.85895   0.37464   0.84734   0.00000  Uiso   1.00
N85    N     0.84092   0.37452   0.86897   0.00000  Uiso   1.00
C334   C     0.86439   0.37468   0.77359   0.00000  Uiso   1.00
C335   C     0.88358   0.37480   0.77358   0.00000  Uiso   1.00
C336   C     0.88903   0.37482   0.84732   0.00000  Uiso   1.00
C337   C     0.80026   0.37424   0.07956   0.00000  Uiso   1.00
C338   C     0.78317   0.37413   0.03996   0.00000  Uiso   1.00
C339   C     0.78317   0.37413   0.96030   0.00000  Uiso   1.00
C340   C     0.80026   0.37424   0.92070   0.00000  Uiso   1.00
C341   C     0.89399   0.37487   0.70732   0.00000  Uiso   1.00
C342   C     0.88375   0.37482   0.64013   0.00000  Uiso   1.00
C343   C     0.86421   0.37470   0.64014   0.00000  Uiso   1.00
C344   C     0.85397   0.37463   0.70733   0.00000  Uiso   1.00
N86    N     0.90067   0.37489   0.00013   0.00000  Uiso   1.00
C345   C     0.91250   0.37494   0.94044   0.00000  Uiso   1.00
N87    N     0.90705   0.37492   0.86893   0.00000  Uiso   1.00
C346   C     0.93108   0.37503   0.96206   0.00000  Uiso   1.00
C347   C     0.93109   0.37503   0.03819   0.00000  Uiso   1.00
C348   C     0.91250   0.37494   0.05982   0.00000  Uiso   1.00
C349   C     0.94778   0.37508   0.07952   0.00000  Uiso   1.00
C350   C     0.96472   0.37513   0.03889   0.00000  Uiso   1.00
C351   C     0.96472   0.37513   0.96136   0.00000  Uiso   1.00
C352   C     0.94778   0.37508   0.92073   0.00000  Uiso   1.00
N88    N     0.90705   0.37492   0.13133   0.00000  Uiso   1.00
H81    H     0.90922   0.37497   0.29265   0.00000  Uiso   1.00
O81    O     0.89226   0.37488   0.42944   0.00000  Uiso   1.00
O82    O     0.85571   0.37466   0.42943   0.00000  Uiso   1.00
H82    H     0.83874   0.37454   0.29262   0.00000  Uiso   1.00
H83    H     0.80048   0.37424   0.14000   0.00000  Uiso   1.00
O83    O     0.76605   0.37404   0.07809   0.00000  Uiso   1.00
O84    O     0.76605   0.37404   0.92217   0.00000  Uiso   1.00
H84    H     0.80048   0.37424   0.86026   0.00000  Uiso   1.00
H85    H     0.90922   0.37496   0.70762   0.00000  Uiso   1.00
O85    O     0.89226   0.37488   0.57082   0.00000  Uiso   1.00
O86    O     0.85571   0.37466   0.57083   0.00000  Uiso   1.00
H86    H     0.83874   0.37454   0.70764   0.00000  Uiso   1.00
H87    H     0.94771   0.37507   0.13996   0.00000  Uiso   1.00
O87    O     0.98218   0.37516   0.07264   0.00000  Uiso   1.00
O88    O     0.98218   0.37516   0.92761   0.00000  Uiso   1.00
H88    H     0.94771   0.37507   0.86029   0.00000  Uiso   1.00
Ni11   Ni    0.87399   0.37473   0.00013   0.00000  Uiso   1.00
C353   C     0.62565   0.80026   0.92066   0.00000  Uiso   1.00
C354   C     0.62578   0.78317   0.96026   0.00000  Uiso   1.00
C355   C     0.62578   0.78317   0.03992   0.00000  Uiso   1.00
C356   C     0.62565   0.80026   0.07952   0.00000  Uiso   1.00
C357   C     0.62552   0.81689   0.03807   0.00000  Uiso   1.00
C358   C     0.62552   0.81689   0.96211   0.00000  Uiso   1.00
C359   C     0.62537   0.83548   0.94045   0.00000  Uiso   1.00
N89    N     0.62528   0.84732   0.00009   0.00000  Uiso   1.00
C360   C     0.62537   0.83548   0.05974   0.00000  Uiso   1.00
N90    N     0.62532   0.84093   0.13126   0.00000  Uiso   1.00
C361   C     0.62518   0.85895   0.15289   0.00000  Uiso   1.00
N91    N     0.62508   0.87399   0.10595   0.00000  Uiso   1.00
C362   C     0.62497   0.88903   0.15290   0.00000  Uiso   1.00
C363   C     0.62499   0.88358   0.22664   0.00000  Uiso   1.00
C364   C     0.62512   0.86439   0.22663   0.00000  Uiso   1.00
N92    N     0.62490   0.90067   0.00009   0.00000  Uiso   1.00
C365   C     0.62483   0.91250   0.05978   0.00000  Uiso   1.00
N93    N     0.62486   0.90705   0.13129   0.00000  Uiso   1.00
C366   C     0.62473   0.93109   0.03816   0.00000  Uiso   1.00
C367   C     0.62473   0.93109   0.96203   0.00000  Uiso   1.00
C368   C     0.62483   0.91250   0.94041   0.00000  Uiso   1.00
C369   C     0.62518   0.85398   0.29289   0.00000  Uiso   1.00
C370   C     0.62510   0.86421   0.36009   0.00000  Uiso   1.00
C371   C     0.62496   0.88375   0.36009   0.00000  Uiso   1.00
C372   C     0.62491   0.89399   0.29290   0.00000  Uiso   1.00
C373   C     0.62467   0.94778   0.92070   0.00000  Uiso   1.00
C374   C     0.62462   0.96472   0.96133   0.00000  Uiso   1.00
C375   C     0.62462   0.96472   0.03885   0.00000  Uiso   1.00
C376   C     0.62467   0.94778   0.07948   0.00000  Uiso   1.00
N94    N     0.62508   0.87399   0.89424   0.00000  Uiso   1.00
C377   C     0.62497   0.88903   0.84728   0.00000  Uiso   1.00
N95    N     0.62486   0.90705   0.86890   0.00000  Uiso   1.00
C378   C     0.62499   0.88358   0.77354   0.00000  Uiso   1.00
C379   C     0.62513   0.86439   0.77355   0.00000  Uiso   1.00
C380   C     0.62518   0.85895   0.84730   0.00000  Uiso   1.00
C381   C     0.62519   0.85398   0.70730   0.00000  Uiso   1.00
C382   C     0.62510   0.86421   0.64010   0.00000  Uiso   1.00
C383   C     0.62496   0.88375   0.64009   0.00000  Uiso   1.00
C384   C     0.62491   0.89399   0.70728   0.00000  Uiso   1.00
N96    N     0.62532   0.84093   0.86893   0.00000  Uiso   1.00
H89    H     0.62565   0.80048   0.86022   0.00000  Uiso   1.00
O89    O     0.62588   0.76605   0.92214   0.00000  Uiso   1.00
O90    O     0.62588   0.76605   0.07805   0.00000  Uiso   1.00
H90    H     0.62564   0.80048   0.13996   0.00000  Uiso   1.00
H91    H     0.62529   0.83874   0.29258   0.00000  Uiso   1.00
O91    O     0.62514   0.85571   0.42939   0.00000  Uiso   1.00
O92    O     0.62489   0.89226   0.42940   0.00000  Uiso   1.00
H92    H     0.62480   0.90922   0.29261   0.00000  Uiso   1.00
H93    H     0.62468   0.94771   0.86026   0.00000  Uiso   1.00
O93    O     0.62458   0.98218   0.92757   0.00000  Uiso   1.00
O94    O     0.62458   0.98218   0.07260   0.00000  Uiso   1.00
H94    H     0.62468   0.94771   0.13992   0.00000  Uiso   1.00
H95    H     0.62529   0.83874   0.70760   0.00000  Uiso   1.00
O95    O     0.62514   0.85571   0.57079   0.00000  Uiso   1.00
O96    O     0.62489   0.89226   0.57078   0.00000  Uiso   1.00
H96    H     0.62480   0.90922   0.70758   0.00000  Uiso   1.00
Ni12   Ni    0.62508   0.87399   0.00009   0.00000  Uiso   1.00
Cu1    Cu    1.00000   0.37516   0.00012   0.00000  Uiso   1.00
Cu2    Cu    0.62458   0.00000   0.00009   0.00000  Uiso   1.00
Cu3    Cu    0.00000   0.62484   0.00012   0.00000  Uiso   1.00
Cu4    Cu    0.37542   1.00000   0.00009   0.00000  Uiso   1.00
Zn1    Zn    0.25000   0.37401   1.00010   0.00000  Uiso   1.00
Zn2    Zn    0.62593   0.25000   1.00008   0.00000  Uiso   1.00
Zn3    Zn    0.75000   0.62599   1.00010   0.00000  Uiso   1.00
Zn4    Zn    0.37407   0.75000   1.00008   0.00000  Uiso   1.00
Zn5    Zn    0.25000   0.62599   0.00013   0.00000  Uiso   1.00
Zn6    Zn    0.37407   0.25000   0.00009   0.00000  Uiso   1.00
Zn7    Zn    0.75000   0.37401   0.00013   0.00000  Uiso   1.00
Zn8    Zn    0.62593   0.75000   0.00009   0.00000  Uiso   1.00
Cu5    Cu    0.12602   0.37477   0.50011   0.00000  Uiso   1.00
Cu6    Cu    0.62501   0.12602   0.50008   0.00000  Uiso   1.00
Cu7    Cu    0.87398   0.62522   0.50011   0.00000  Uiso   1.00
Cu8    Cu    0.37497   0.87398   0.50008   0.00000  Uiso   1.00
Cu9    Cu    0.12602   0.62522   0.50013   0.00000  Uiso   1.00
Cu10   Cu    0.37497   0.12602   0.50009   0.00000  Uiso   1.00
Cu11   Cu    0.87398   0.37477   0.50013   0.00000  Uiso   1.00
Cu12   Cu    0.62501   0.87398   0.50009   0.00000  Uiso   1.00
Cu13   Cu    0.37397   0.50000  -0.00001   0.00000  Uiso   1.00
Cu14   Cu    0.50000   0.37400  -0.00003   0.00000  Uiso   1.00
Cu15   Cu    0.62603   0.50000  -0.00001   0.00000  Uiso   1.00
Cu16   Cu    0.50000   0.62600  -0.00003   0.00000  Uiso   1.00
loop_
_geom_bond_atom_site_label_1
_geom_bond_atom_site_label_2
_geom_bond_distance
_geom_bond_site_symmetry_2
_ccdc_geom_bond_type
C1     C2      1.406   .     A
C1     C6      1.399   .     A
C1     H1      1.082   .     S
C2     C3      1.388   .     A
C2     O1      1.381   .     S
C3     C4      1.406   .     A
C3     O2      1.381   .     S
C4     C5      1.399   .     A
C4     H2      1.082   .     S
C5     C6      1.363   .     A
C5     C8      1.376   .     A
C6     C7      1.376   .     A
C7     N1      1.360   .     A
C7     N8      1.338   .     A
N1     C8      1.360   .     A
N1     Ni1     1.896   .     S
C8     N2      1.338   1_554 A
N2     C8      1.338   1_556 A
N2     C9      1.338   .     A
C9     N3      1.360   1_556 A
C9     C12     1.376   .     A
N3     C9      1.360   1_554 A
N3     C10     1.360   .     A
N3     Ni1     1.896   .     S
C10    C11     1.377   .     A
C10    N5      1.338   .     A
C11    C12     1.361   1_554 A
C11    C20     1.396   .     A
C12    C11     1.361   1_556 A
C12    C17     1.396   .     A
N4     C13     1.360   .     A
N4     C16     1.360   .     A
N4     Ni1     1.896   .     S
C13    N5      1.338   .     A
C13    C14     1.377   .     A
C14    C15     1.360   .     A
C14    C24     1.396   .     A
C15    C16     1.376   .     A
C15    C21     1.396   .     A
C16    N7      1.338   1_554 A
C17    C18     1.406   .     A
C17    H3      1.083   .     S
C18    C19     1.427   .     A
C18    O3      1.395   .     S
C19    C20     1.407   1_556 A
C19    O4      1.395   .     S
C20    C19     1.407   1_554 A
C20    H4      1.083   .     S
C21    C22     1.406   .     A
C21    H5      1.083   1_554 S
C22    C23     1.427   .     A
C22    O5      1.395   .     S
C23    C24     1.407   .     A
C23    O6      1.395   .     S
C24    H6      1.083   .     S
N6     C25     1.360   1_554 A
N6     C28     1.360   .     A
N6     Ni1     1.896   .     S
C25    N6      1.360   1_556 A
C25    N7      1.338   .     A
C25    C26     1.376   .     A
N7     C16     1.338   1_556 A
C26    C27     1.363   1_556 A
C26    C32     1.399   .     A
C27    C26     1.363   1_554 A
C27    C28     1.376   .     A
C27    C29     1.399   .     A
C28    N8      1.338   .     A
C29    C30     1.406   .     A
C29    H7      1.082   .     S
C30    C31     1.388   1_554 A
C30    O7      1.381   1_554 S
C31    C30     1.388   1_556 A
C31    C32     1.406   .     A
C31    O8      1.381   .     S
C32    H8      1.082   .     S
O1     Cu13    1.814   .     S
O2     Cu13    1.814   .     S
O3     Zn1     1.803   .     S
O4     Zn1     1.803   .     S
H5     C21     1.083   1_556 S
O5     Zn6     1.802   .     S
O6     Zn6     1.803   .     S
O7     C30     1.381   1_556 S
O7     Cu14    1.814   1_556 S
O8     Cu14    1.814   1_556 S
C33    C34     1.406   .     A
C33    C38     1.399   .     A
C33    H9      1.082   .     S
C34    C35     1.388   .     A
C34    O9      1.381   .     S
C35    C36     1.406   1_556 A
C35    O10     1.381   .     S
C36    C35     1.406   1_554 A
C36    C37     1.399   1_554 A
C36    H10     1.082   .     S
C37    C36     1.399   1_556 A
C37    C38     1.363   .     A
C37    C40     1.376   .     A
C38    C39     1.376   .     A
C39    N9      1.360   .     A
C39    N16     1.338   .     A
N9     C40     1.360   .     A
N9     Ni2     1.896   .     S
C40    N10     1.338   1_556 A
N10    C40     1.338   1_554 A
N10    C41     1.338   .     A
C41    N11     1.360   1_554 A
C41    C44     1.376   .     A
N11    C41     1.360   1_556 A
N11    C42     1.360   .     A
N11    Ni2     1.896   .     S
C42    C43     1.377   1_556 A
C42    N13     1.338   .     A
C43    C42     1.377   1_554 A
C43    C44     1.361   .     A
C43    C52     1.396   .     A
C44    C49     1.396   .     A
N12    C45     1.360   .     A
N12    C48     1.360   1_556 A
N12    Ni2     1.896   .     S
C45    N13     1.338   .     A
C45    C46     1.377   .     A
C46    C47     1.360   1_556 A
C46    C56     1.396   .     A
C47    C46     1.360   1_554 A
C47    C48     1.376   .     A
C47    C53     1.396   .     A
C48    N12     1.360   1_554 A
C48    N15     1.338   .     A
C49    C50     1.406   .     A
C49    H11     1.083   .     S
C50    C51     1.427   .     A
C50    O11     1.395   .     S
C51    C52     1.407   .     A
C51    O12     1.395   .     S
C52    H12     1.083   .     S
C53    C54     1.406   1_554 A
C53    H13     1.083   .     S
C54    C53     1.406   1_556 A
C54    C55     1.427   .     A
C54    O13     1.395   .     S
C55    C56     1.407   .     A
C55    O14     1.395   .     S
C56    H14     1.083   .     S
N14    C57     1.360   1_556 A
N14    C60     1.360   .     A
N14    Ni2     1.896   .     S
C57    N14     1.360   1_554 A
C57    N15     1.338   .     A
C57    C58     1.376   .     A
C58    C59     1.363   1_554 A
C58    C64     1.399   .     A
C59    C58     1.363   1_556 A
C59    C60     1.376   .     A
C59    C61     1.399   .     A
C60    N16     1.338   .     A
C61    C62     1.406   1_556 A
C61    H15     1.082   .     S
C62    C61     1.406   1_554 A
C62    C63     1.388   .     A
C62    O15     1.381   .     S
C63    C64     1.406   .     A
C63    O16     1.381   .     S
C64    H16     1.082   .     S
O9     Cu15    1.814   1_556 S
O10    Cu15    1.814   1_556 S
O11    Zn7     1.803   .     S
O12    Zn7     1.803   .     S
O13    Zn2     1.802   .     S
O14    Zn2     1.803   .     S
O15    Cu14    1.814   .     S
O16    Cu14    1.814   .     S
C65    C66     1.406   .     A
C65    C70     1.399   .     A
C65    H17     1.082   .     S
C66    C67     1.388   .     A
C66    O17     1.381   .     S
C67    C68     1.406   .     A
C67    O18     1.381   .     S
C68    C69     1.399   .     A
C68    H18     1.082   .     S
C69    C70     1.363   .     A
C69    C72     1.376   .     A
C70    C71     1.376   .     A
C71    N17     1.360   .     A
C71    N24     1.338   .     A
N17    C72     1.360   .     A
N17    Ni3     1.896   .     S
C72    N18     1.338   1_554 A
N18    C72     1.338   1_556 A
N18    C73     1.338   .     A
C73    N19     1.360   1_556 A
C73    C76     1.376   .     A
N19    C73     1.360   1_554 A
N19    C74     1.360   .     A
N19    Ni3     1.896   .     S
C74    C75     1.377   .     A
C74    N21     1.338   .     A
C75    C76     1.360   1_554 A
C75    C84     1.396   .     A
C76    C75     1.360   1_556 A
C76    C81     1.396   .     A
N20    C77     1.360   .     A
N20    C80     1.360   .     A
N20    Ni3     1.896   .     S
C77    N21     1.338   .     A
C77    C78     1.377   .     A
C78    C79     1.360   .     A
C78    C88     1.396   .     A
C79    C80     1.376   .     A
C79    C85     1.396   .     A
C80    N23     1.338   1_554 A
C81    C82     1.406   .     A
C81    H19     1.083   .     S
C82    C83     1.427   .     A
C82    O19     1.395   .     S
C83    C84     1.407   1_556 A
C83    O20     1.395   .     S
C84    C83     1.407   1_554 A
C84    H20     1.083   .     S
C85    C86     1.406   .     A
C85    H21     1.083   1_554 S
C86    C87     1.427   .     A
C86    O21     1.395   .     S
C87    C88     1.407   .     A
C87    O22     1.395   .     S
C88    H22     1.083   .     S
N22    C89     1.360   1_554 A
N22    C92     1.360   .     A
N22    Ni3     1.896   .     S
C89    N22     1.360   1_556 A
C89    N23     1.338   .     A
C89    C90     1.376   .     A
N23    C80     1.338   1_556 A
C90    C91     1.363   1_556 A
C90    C96     1.399   .     A
C91    C90     1.363   1_554 A
C91    C92     1.376   .     A
C91    C93     1.399   .     A
C92    N24     1.338   .     A
C93    C94     1.406   .     A
C93    H23     1.082   .     S
C94    C95     1.388   1_554 A
C94    O23     1.381   1_554 S
C95    C94     1.388   1_556 A
C95    C96     1.406   .     A
C95    O24     1.381   .     S
C96    H24     1.082   .     S
O17    Cu15    1.814   .     S
O18    Cu15    1.814   .     S
O19    Zn3     1.803   .     S
O20    Zn3     1.803   .     S
H21    C85     1.083   1_556 S
O21    Zn8     1.802   .     S
O22    Zn8     1.803   .     S
O23    C94     1.381   1_556 S
O23    Cu16    1.814   1_556 S
O24    Cu16    1.814   1_556 S
C97    C98     1.406   .     A
C97    C102    1.399   .     A
C97    H25     1.082   .     S
C98    C99     1.388   .     A
C98    O25     1.381   .     S
C99    C100    1.406   1_556 A
C99    O26     1.381   .     S
C100   C99     1.406   1_554 A
C100   C101    1.399   1_554 A
C100   H26     1.082   .     S
C101   C100    1.399   1_556 A
C101   C102    1.363   .     A
C101   C104    1.376   .     A
C102   C103    1.376   .     A
C103   N25     1.360   .     A
C103   N32     1.338   .     A
N25    C104    1.360   .     A
N25    Ni4     1.896   .     S
C104   N26     1.338   1_556 A
N26    C104    1.338   1_554 A
N26    C105    1.338   .     A
C105   N27     1.360   1_554 A
C105   C108    1.376   .     A
N27    C105    1.360   1_556 A
N27    C106    1.360   .     A
N27    Ni4     1.896   .     S
C106   C107    1.377   1_556 A
C106   N29     1.338   .     A
C107   C106    1.377   1_554 A
C107   C108    1.360   .     A
C107   C116    1.396   .     A
C108   C113    1.396   .     A
N28    C109    1.360   .     A
N28    C112    1.360   1_556 A
N28    Ni4     1.896   .     S
C109   N29     1.338   .     A
C109   C110    1.377   .     A
C110   C111    1.360   1_556 A
C110   C120    1.396   .     A
C111   C110    1.360   1_554 A
C111   C112    1.376   .     A
C111   C117    1.396   .     A
C112   N28     1.360   1_554 A
C112   N31     1.338   .     A
C113   C114    1.406   .     A
C113   H27     1.083   .     S
C114   C115    1.427   .     A
C114   O27     1.395   .     S
C115   C116    1.407   .     A
C115   O28     1.395   .     S
C116   H28     1.083   .     S
C117   C118    1.406   1_554 A
C117   H29     1.083   .     S
C118   C117    1.406   1_556 A
C118   C119    1.427   .     A
C118   O29     1.395   .     S
C119   C120    1.407   .     A
C119   O30     1.395   .     S
C120   H30     1.083   .     S
N30    C121    1.360   1_556 A
N30    C124    1.360   .     A
N30    Ni4     1.896   .     S
C121   N30     1.360   1_554 A
C121   N31     1.338   .     A
C121   C122    1.376   .     A
C122   C123    1.363   1_554 A
C122   C128    1.399   .     A
C123   C122    1.363   1_556 A
C123   C124    1.376   .     A
C123   C125    1.399   .     A
C124   N32     1.338   .     A
C125   C126    1.406   1_556 A
C125   H31     1.082   .     S
C126   C125    1.406   1_554 A
C126   C127    1.388   .     A
C126   O31     1.381   .     S
C127   C128    1.406   .     A
C127   O32     1.381   .     S
C128   H32     1.082   .     S
O25    Cu13    1.814   1_556 S
O26    Cu13    1.814   1_556 S
O27    Zn5     1.803   .     S
O28    Zn5     1.803   .     S
O29    Zn4     1.802   .     S
O30    Zn4     1.803   .     S
O31    Cu16    1.814   .     S
O32    Cu16    1.814   .     S
C129   C130    1.406   .     A
C129   C134    1.399   .     A
C129   H33     1.082   .     S
C130   C131    1.388   .     A
C130   O33     1.381   .     S
C131   C132    1.406   .     A
C131   O34     1.381   .     S
C132   C133    1.399   .     A
C132   H34     1.082   .     S
C133   C134    1.363   .     A
C133   C136    1.376   .     A
C134   C135    1.376   .     A
C135   N33     1.360   .     A
C135   N40     1.338   .     A
N33    C136    1.360   .     A
N33    Ni5     1.896   1_556 S
C136   N34     1.338   .     A
N34    C137    1.338   .     A
C137   N35     1.360   1_556 A
C137   C140    1.377   .     A
N35    C137    1.360   1_554 A
N35    C138    1.360   .     A
N35    Ni5     1.896   .     S
C138   C139    1.377   .     A
C138   N37     1.338   .     A
C139   C140    1.360   1_554 A
C139   C148    1.396   .     A
C140   C139    1.360   1_556 A
C140   C145    1.396   .     A
N36    C141    1.360   .     A
N36    C144    1.360   .     A
N36    Ni5     1.896   .     S
C141   N37     1.338   .     A
C141   C142    1.376   .     A
C142   C143    1.363   .     A
C142   C152    1.399   .     A
C143   C144    1.376   .     A
C143   C149    1.399   .     A
C144   N39     1.338   .     A
C145   C146    1.406   .     A
C145   H35     1.083   .     S
C146   C147    1.427   1_556 A
C146   O35     1.395   .     S
C147   C146    1.427   1_554 A
C147   C148    1.406   .     A
C147   O36     1.395   .     S
C148   H36     1.083   .     S
C149   C150    1.406   .     A
C149   H37     1.082   .     S
C150   C151    1.388   .     A
C150   O37     1.381   .     S
C151   C152    1.406   .     A
C151   O38     1.381   .     S
C152   H38     1.082   .     S
N38    C153    1.360   .     A
N38    C156    1.360   1_554 A
N38    Ni5     1.896   .     S
C153   N39     1.338   .     A
C153   C154    1.376   .     A
C154   C155    1.363   1_554 A
C154   C160    1.399   .     A
C155   C154    1.363   1_556 A
C155   C156    1.376   .     A
C155   C157    1.399   .     A
C156   N38     1.360   1_556 A
C156   N40     1.338   .     A
C157   C158    1.406   .     A
C157   H39     1.082   .     S
C158   C159    1.388   1_556 A
C158   O39     1.381   .     S
C159   C158    1.388   1_554 A
C159   C160    1.406   .     A
C159   O40     1.381   .     S
C160   H40     1.082   .     S
O33    Cu5     1.814   .     S
O34    Cu5     1.814   .     S
O35    Zn1     1.803   .     S
O36    Zn1     1.803   1_554 S
O37    Cu5     1.814   .     S
O38    Cu5     1.814   .     S
O39    Cu1     1.814   1_456 S
O40    Cu1     1.814   1_455 S
Ni5    N33     1.896   1_554 S
C161   C162    1.406   .     A
C161   C166    1.396   .     A
C161   H41     1.083   .     S
C162   C163    1.427   1_554 A
C162   O41     1.395   .     S
C163   C162    1.427   1_556 A
C163   C164    1.406   .     A
C163   O42     1.395   .     S
C164   C165    1.396   .     A
C164   H42     1.083   .     S
C165   C166    1.360   1_556 A
C165   C168    1.377   .     A
C166   C165    1.360   1_554 A
C166   C167    1.377   .     A
C167   N41     1.360   .     A
C167   N48     1.338   .     A
N41    C168    1.360   1_554 A
N41    Ni6     1.896   .     S
C168   N41     1.360   1_556 A
C168   N42     1.338   .     A
N42    C169    1.338   .     A
C169   N43     1.360   .     A
C169   C172    1.376   .     A
N43    C170    1.360   .     A
N43    Ni6     1.896   1_556 S
C170   C171    1.376   .     A
C170   N45     1.338   .     A
C171   C172    1.363   .     A
C171   C180    1.399   .     A
C172   C177    1.399   .     A
N44    C173    1.360   1_554 A
N44    C176    1.360   .     A
N44    Ni6     1.896   .     S
C173   N44     1.360   1_556 A
C173   N45     1.338   .     A
C173   C174    1.376   .     A
C174   C175    1.363   1_556 A
C174   C184    1.399   .     A
C175   C174    1.363   1_554 A
C175   C176    1.376   .     A
C175   C181    1.399   .     A
C176   N47     1.338   .     A
C177   C178    1.406   .     A
C177   H43     1.082   .     S
C178   C179    1.388   .     A
C178   O43     1.381   .     S
C179   C180    1.406   .     A
C179   O44     1.381   .     S
C180   H44     1.082   .     S
C181   C182    1.406   .     A
C181   H45     1.082   .     S
C182   C183    1.388   1_554 A
C182   O45     1.381   .     S
C183   C182    1.388   1_556 A
C183   C184    1.406   .     A
C183   O46     1.381   .     S
C184   H46     1.082   .     S
N46    C185    1.360   .     A
N46    C188    1.360   .     A
N46    Ni6     1.896   .     S
C185   N47     1.338   .     A
C185   C186    1.376   .     A
C186   C187    1.363   .     A
C186   C192    1.399   .     A
C187   C188    1.376   .     A
C187   C189    1.399   .     A
C188   N48     1.338   .     A
C189   C190    1.406   .     A
C189   H47     1.082   .     S
C190   C191    1.388   .     A
C190   O47     1.381   .     S
C191   C192    1.406   .     A
C191   O48     1.381   .     S
C192   H48     1.082   .     S
O41    Zn2     1.803   1_554 S
O42    Zn2     1.803   .     S
O43    Cu6     1.814   .     S
O44    Cu6     1.814   .     S
O45    Cu2     1.814   .     S
O46    Cu2     1.814   1_556 S
O47    Cu6     1.814   .     S
O48    Cu6     1.814   .     S
Ni6    N43     1.896   1_554 S
C193   C194    1.406   .     A
C193   C198    1.399   .     A
C193   H49     1.082   .     S
C194   C195    1.388   .     A
C194   O49     1.381   .     S
C195   C196    1.406   .     A
C195   O50     1.381   .     S
C196   C197    1.399   .     A
C196   H50     1.082   .     S
C197   C198    1.363   .     A
C197   C200    1.376   .     A
C198   C199    1.376   .     A
C199   N49     1.360   .     A
C199   N56     1.338   .     A
N49    C200    1.360   .     A
N49    Ni7     1.896   1_556 S
C200   N50     1.338   .     A
N50    C201    1.338   .     A
C201   N51     1.360   1_556 A
C201   C204    1.377   .     A
N51    C201    1.360   1_554 A
N51    C202    1.360   .     A
N51    Ni7     1.896   .     S
C202   C203    1.377   .     A
C202   N53     1.338   .     A
C203   C204    1.360   1_554 A
C203   C212    1.396   .     A
C204   C203    1.360   1_556 A
C204   C209    1.396   .     A
N52    C205    1.360   .     A
N52    C208    1.360   .     A
N52    Ni7     1.896   .     S
C205   N53     1.338   .     A
C205   C206    1.376   .     A
C206   C207    1.363   .     A
C206   C216    1.399   .     A
C207   C208    1.376   .     A
C207   C213    1.399   .     A
C208   N55     1.338   .     A
C209   C210    1.406   .     A
C209   H51     1.083   .     S
C210   C211    1.427   1_556 A
C210   O51     1.395   .     S
C211   C210    1.427   1_554 A
C211   C212    1.406   .     A
C211   O52     1.395   .     S
C212   H52     1.083   .     S
C213   C214    1.406   .     A
C213   H53     1.082   .     S
C214   C215    1.388   .     A
C214   O53     1.381   .     S
C215   C216    1.406   .     A
C215   O54     1.381   .     S
C216   H54     1.082   .     S
N54    C217    1.360   .     A
N54    C220    1.360   1_554 A
N54    Ni7     1.896   .     S
C217   N55     1.338   .     A
C217   C218    1.376   .     A
C218   C219    1.363   1_554 A
C218   C224    1.399   .     A
C219   C218    1.363   1_556 A
C219   C220    1.376   .     A
C219   C221    1.399   .     A
C220   N54     1.360   1_556 A
C220   N56     1.338   .     A
C221   C222    1.406   .     A
C221   H55     1.082   .     S
C222   C223    1.388   1_556 A
C222   O55     1.381   .     S
C223   C222    1.388   1_554 A
C223   C224    1.406   .     A
C223   O56     1.381   .     S
C224   H56     1.082   .     S
O49    Cu7     1.814   .     S
O50    Cu7     1.814   .     S
O51    Zn3     1.803   .     S
O52    Zn3     1.803   1_554 S
O53    Cu7     1.814   .     S
O54    Cu7     1.814   .     S
O55    Cu3     1.814   1_656 S
O56    Cu3     1.814   1_655 S
Ni7    N49     1.896   1_554 S
C225   C226    1.406   .     A
C225   C230    1.396   .     A
C225   H57     1.083   .     S
C226   C227    1.427   1_554 A
C226   O57     1.395   .     S
C227   C226    1.427   1_556 A
C227   C228    1.406   .     A
C227   O58     1.395   .     S
C228   C229    1.396   .     A
C228   H58     1.083   .     S
C229   C230    1.360   1_556 A
C229   C232    1.377   .     A
C230   C229    1.360   1_554 A
C230   C231    1.377   .     A
C231   N57     1.360   .     A
C231   N64     1.338   .     A
N57    C232    1.360   1_554 A
N57    Ni8     1.896   .     S
C232   N57     1.360   1_556 A
C232   N58     1.338   .     A
N58    C233    1.338   .     A
C233   N59     1.360   .     A
C233   C236    1.376   .     A
N59    C234    1.360   .     A
N59    Ni8     1.896   1_556 S
C234   C235    1.376   .     A
C234   N61     1.338   .     A
C235   C236    1.363   .     A
C235   C244    1.399   .     A
C236   C241    1.399   .     A
N60    C237    1.360   1_554 A
N60    C240    1.360   .     A
N60    Ni8     1.896   .     S
C237   N60     1.360   1_556 A
C237   N61     1.338   .     A
C237   C238    1.376   .     A
C238   C239    1.363   1_556 A
C238   C248    1.399   .     A
C239   C238    1.363   1_554 A
C239   C240    1.376   .     A
C239   C245    1.399   .     A
C240   N63     1.338   .     A
C241   C242    1.406   .     A
C241   H59     1.082   .     S
C242   C243    1.388   .     A
C242   O59     1.381   .     S
C243   C244    1.406   .     A
C243   O60     1.381   .     S
C244   H60     1.082   .     S
C245   C246    1.406   .     A
C245   H61     1.082   .     S
C246   C247    1.388   1_554 A
C246   O61     1.381   .     S
C247   C246    1.388   1_556 A
C247   C248    1.406   .     A
C247   O62     1.381   .     S
C248   H62     1.082   .     S
N62    C249    1.360   .     A
N62    C252    1.360   .     A
N62    Ni8     1.896   .     S
C249   N63     1.338   .     A
C249   C250    1.376   .     A
C250   C251    1.363   .     A
C250   C256    1.399   .     A
C251   C252    1.376   .     A
C251   C253    1.399   .     A
C252   N64     1.338   .     A
C253   C254    1.406   .     A
C253   H63     1.082   .     S
C254   C255    1.388   .     A
C254   O63     1.381   .     S
C255   C256    1.406   .     A
C255   O64     1.381   .     S
C256   H64     1.082   .     S
O57    Zn4     1.803   1_554 S
O58    Zn4     1.803   .     S
O59    Cu8     1.814   .     S
O60    Cu8     1.814   .     S
O61    Cu4     1.814   .     S
O62    Cu4     1.814   1_556 S
O63    Cu8     1.814   .     S
O64    Cu8     1.814   .     S
Ni8    N59     1.896   1_554 S
C257   C258    1.406   .     A
C257   C262    1.399   .     A
C257   H65     1.082   .     S
C258   C259    1.388   .     A
C258   O65     1.381   .     S
C259   C260    1.406   .     A
C259   O66     1.381   .     S
C260   C261    1.399   .     A
C260   H66     1.082   .     S
C261   C262    1.363   .     A
C261   C264    1.376   .     A
C262   C263    1.376   .     A
C263   N65     1.360   .     A
C263   N72     1.338   .     A
N65    C264    1.360   .     A
N65    Ni9     1.896   .     S
C264   N66     1.338   .     A
N66    C265    1.338   .     A
C265   N67     1.360   .     A
C265   C268    1.377   .     A
N67    C266    1.360   1_554 A
N67    Ni9     1.896   .     S
C266   N67     1.360   1_556 A
C266   C267    1.377   .     A
C266   N69     1.338   .     A
C267   C268    1.360   1_556 A
C267   C276    1.396   .     A
C268   C267    1.360   1_554 A
C268   C273    1.396   .     A
N68    C269    1.360   .     A
N68    C272    1.360   .     A
N68    Ni9     1.896   1_556 S
C269   N69     1.338   .     A
C269   C270    1.376   .     A
C270   C271    1.363   .     A
C270   C280    1.399   .     A
C271   C272    1.376   .     A
C271   C277    1.399   .     A
C272   N71     1.338   .     A
C273   C274    1.406   .     A
C273   H67     1.083   .     S
C274   C275    1.427   1_554 A
C274   O67     1.395   .     S
C275   C274    1.427   1_556 A
C275   C276    1.406   .     A
C275   O68     1.395   .     S
C276   H68     1.083   .     S
C277   C278    1.406   .     A
C277   H69     1.082   .     S
C278   C279    1.388   .     A
C278   O69     1.381   .     S
C279   C280    1.406   .     A
C279   O70     1.381   .     S
C280   H70     1.082   .     S
N70    C281    1.360   1_554 A
N70    C284    1.360   .     A
N70    Ni9     1.896   .     S
C281   N70     1.360   1_556 A
C281   N71     1.338   .     A
C281   C282    1.376   .     A
C282   C283    1.363   1_556 A
C282   C288    1.399   .     A
C283   C282    1.363   1_554 A
C283   C284    1.376   .     A
C283   C285    1.399   .     A
C284   N72     1.338   .     A
C285   C286    1.406   .     A
C285   H71     1.082   .     S
C286   C287    1.388   1_554 A
C286   O71     1.381   .     S
C287   C286    1.388   1_556 A
C287   C288    1.406   .     A
C287   O72     1.381   .     S
C288   H72     1.082   .     S
O65    Cu9     1.814   .     S
O66    Cu9     1.814   .     S
O67    Zn5     1.803   .     S
O68    Zn5     1.803   1_556 S
O69    Cu9     1.814   .     S
O70    Cu9     1.814   .     S
O71    Cu3     1.814   .     S
O72    Cu3     1.814   1_556 S
Ni9    N68     1.896   1_554 S
C289   C290    1.406   .     A
C289   C294    1.396   .     A
C289   H73     1.083   .     S
C290   C291    1.427   1_556 A
C290   O73     1.395   .     S
C291   C290    1.427   1_554 A
C291   C292    1.406   .     A
C291   O74     1.395   .     S
C292   C293    1.396   .     A
C292   H74     1.083   .     S
C293   C294    1.360   1_554 A
C293   C296    1.377   .     A
C294   C293    1.360   1_556 A
C294   C295    1.377   .     A
C295   N73     1.360   1_556 A
C295   N80     1.338   .     A
N73    C295    1.360   1_554 A
N73    C296    1.360   .     A
N73    Ni10    1.896   .     S
C296   N74     1.338   .     A
N74    C297    1.338   .     A
C297   N75     1.360   .     A
C297   C300    1.376   .     A
N75    C298    1.360   .     A
N75    Ni10    1.896   .     S
C298   C299    1.376   .     A
C298   N77     1.338   .     A
C299   C300    1.363   .     A
C299   C308    1.399   .     A
C300   C305    1.399   .     A
N76    C301    1.360   .     A
N76    C304    1.360   1_554 A
N76    Ni10    1.896   .     S
C301   N77     1.338   .     A
C301   C302    1.376   .     A
C302   C303    1.363   1_554 A
C302   C312    1.399   .     A
C303   C302    1.363   1_556 A
C303   C304    1.376   .     A
C303   C309    1.399   .     A
C304   N76     1.360   1_556 A
C304   N79     1.338   .     A
C305   C306    1.406   .     A
C305   H75     1.082   .     S
C306   C307    1.388   .     A
C306   O75     1.381   .     S
C307   C308    1.406   .     A
C307   O76     1.381   .     S
C308   H76     1.082   .     S
C309   C310    1.406   .     A
C309   H77     1.082   .     S
C310   C311    1.388   1_556 A
C310   O77     1.381   .     S
C311   C310    1.388   1_554 A
C311   C312    1.406   .     A
C311   O78     1.381   .     S
C312   H78     1.082   .     S
N78    C313    1.360   .     A
N78    C316    1.360   .     A
N78    Ni10    1.896   1_556 S
C313   N79     1.338   .     A
C313   C314    1.376   .     A
C314   C315    1.363   .     A
C314   C320    1.399   .     A
C315   C316    1.376   .     A
C315   C317    1.399   .     A
C316   N80     1.338   .     A
C317   C318    1.406   .     A
C317   H79     1.082   .     S
C318   C319    1.388   .     A
C318   O79     1.381   .     S
C319   C320    1.406   .     A
C319   O80     1.381   .     S
C320   H80     1.082   .     S
O73    Zn6     1.803   1_556 S
O74    Zn6     1.803   .     S
O75    Cu10    1.814   .     S
O76    Cu10    1.814   .     S
O77    Cu4     1.814   1_546 S
O78    Cu4     1.814   1_545 S
O79    Cu10    1.814   .     S
O80    Cu10    1.814   .     S
Ni10   N78     1.896   1_554 S
C321   C322    1.406   .     A
C321   C326    1.399   .     A
C321   H81     1.082   .     S
C322   C323    1.388   .     A
C322   O81     1.381   .     S
C323   C324    1.406   .     A
C323   O82     1.381   .     S
C324   C325    1.399   .     A
C324   H82     1.082   .     S
C325   C326    1.363   .     A
C325   C328    1.376   .     A
C326   C327    1.376   .     A
C327   N81     1.360   .     A
C327   N88     1.338   .     A
N81    C328    1.360   .     A
N81    Ni11    1.896   .     S
C328   N82     1.338   .     A
N82    C329    1.338   .     A
C329   N83     1.360   .     A
C329   C332    1.377   .     A
N83    C330    1.360   1_554 A
N83    Ni11    1.896   .     S
C330   N83     1.360   1_556 A
C330   C331    1.377   .     A
C330   N85     1.338   .     A
C331   C332    1.360   1_556 A
C331   C340    1.396   .     A
C332   C331    1.360   1_554 A
C332   C337    1.396   .     A
N84    C333    1.360   .     A
N84    C336    1.360   .     A
N84    Ni11    1.896   1_556 S
C333   N85     1.338   .     A
C333   C334    1.376   .     A
C334   C335    1.363   .     A
C334   C344    1.399   .     A
C335   C336    1.376   .     A
C335   C341    1.399   .     A
C336   N87     1.338   .     A
C337   C338    1.406   .     A
C337   H83     1.083   .     S
C338   C339    1.427   1_554 A
C338   O83     1.395   .     S
C339   C338    1.427   1_556 A
C339   C340    1.406   .     A
C339   O84     1.395   .     S
C340   H84     1.083   .     S
C341   C342    1.406   .     A
C341   H85     1.082   .     S
C342   C343    1.388   .     A
C342   O85     1.381   .     S
C343   C344    1.406   .     A
C343   O86     1.381   .     S
C344   H86     1.082   .     S
N86    C345    1.360   1_554 A
N86    C348    1.360   .     A
N86    Ni11    1.896   .     S
C345   N86     1.360   1_556 A
C345   N87     1.338   .     A
C345   C346    1.376   .     A
C346   C347    1.363   1_556 A
C346   C352    1.399   .     A
C347   C346    1.363   1_554 A
C347   C348    1.376   .     A
C347   C349    1.399   .     A
C348   N88     1.338   .     A
C349   C350    1.406   .     A
C349   H87     1.082   .     S
C350   C351    1.388   1_554 A
C350   O87     1.381   .     S
C351   C350    1.388   1_556 A
C351   C352    1.406   .     A
C351   O88     1.381   .     S
C352   H88     1.082   .     S
O81    Cu11    1.814   .     S
O82    Cu11    1.814   .     S
O83    Zn7     1.803   .     S
O84    Zn7     1.803   1_556 S
O85    Cu11    1.814   .     S
O86    Cu11    1.814   .     S
O87    Cu1     1.814   .     S
O88    Cu1     1.814   1_556 S
Ni11   N84     1.896   1_554 S
C353   C354    1.406   .     A
C353   C358    1.396   .     A
C353   H89     1.083   .     S
C354   C355    1.427   1_556 A
C354   O89     1.395   .     S
C355   C354    1.427   1_554 A
C355   C356    1.406   .     A
C355   O90     1.395   .     S
C356   C357    1.396   .     A
C356   H90     1.083   .     S
C357   C358    1.360   1_554 A
C357   C360    1.377   .     A
C358   C357    1.360   1_556 A
C358   C359    1.377   .     A
C359   N89     1.360   1_556 A
C359   N96     1.338   .     A
N89    C359    1.360   1_554 A
N89    C360    1.360   .     A
N89    Ni12    1.896   .     S
C360   N90     1.338   .     A
N90    C361    1.338   .     A
C361   N91     1.360   .     A
C361   C364    1.376   .     A
N91    C362    1.360   .     A
N91    Ni12    1.896   .     S
C362   C363    1.376   .     A
C362   N93     1.338   .     A
C363   C364    1.363   .     A
C363   C372    1.399   .     A
C364   C369    1.399   .     A
N92    C365    1.360   .     A
N92    C368    1.360   1_554 A
N92    Ni12    1.896   .     S
C365   N93     1.338   .     A
C365   C366    1.376   .     A
C366   C367    1.363   1_554 A
C366   C376    1.399   .     A
C367   C366    1.363   1_556 A
C367   C368    1.376   .     A
C367   C373    1.399   .     A
C368   N92     1.360   1_556 A
C368   N95     1.338   .     A
C369   C370    1.406   .     A
C369   H91     1.082   .     S
C370   C371    1.388   .     A
C370   O91     1.381   .     S
C371   C372    1.406   .     A
C371   O92     1.381   .     S
C372   H92     1.082   .     S
C373   C374    1.406   .     A
C373   H93     1.082   .     S
C374   C375    1.388   1_556 A
C374   O93     1.381   .     S
C375   C374    1.388   1_554 A
C375   C376    1.406   .     A
C375   O94     1.381   .     S
C376   H94     1.082   .     S
N94    C377    1.360   .     A
N94    C380    1.360   .     A
N94    Ni12    1.896   1_556 S
C377   N95     1.338   .     A
C377   C378    1.376   .     A
C378   C379    1.363   .     A
C378   C384    1.399   .     A
C379   C380    1.376   .     A
C379   C381    1.399   .     A
C380   N96     1.338   .     A
C381   C382    1.406   .     A
C381   H95     1.082   .     S
C382   C383    1.388   .     A
C382   O95     1.381   .     S
C383   C384    1.406   .     A
C383   O96     1.381   .     S
C384   H96     1.082   .     S
O89    Zn8     1.803   1_556 S
O90    Zn8     1.803   .     S
O91    Cu12    1.814   .     S
O92    Cu12    1.814   .     S
O93    Cu2     1.814   1_566 S
O94    Cu2     1.814   1_565 S
O95    Cu12    1.814   .     S
O96    Cu12    1.814   .     S
Ni12   N94     1.896   1_554 S
Cu1    O40     1.814   1_655 S
Cu1    O88     1.814   1_554 S
Cu1    O39     1.814   1_654 S
Cu2    O94     1.814   1_545 S
Cu2    O46     1.814   1_554 S
Cu2    O93     1.814   1_544 S
Cu3    O56     1.814   1_455 S
Cu3    O72     1.814   1_554 S
Cu3    O55     1.814   1_454 S
Cu4    O78     1.814   1_565 S
Cu4    O77     1.814   1_564 S
Cu4    O62     1.814   1_554 S
Zn1    O36     1.803   1_556 S
Zn2    O41     1.803   1_556 S
Zn3    O52     1.803   1_556 S
Zn4    O57     1.803   1_556 S
Zn5    O68     1.803   1_554 S
Zn6    O73     1.803   1_554 S
Zn7    O84     1.803   1_554 S
Zn8    O89     1.803   1_554 S
Cu13   O25     1.814   1_554 S
Cu13   O26     1.814   1_554 S
Cu14   O7      1.814   1_554 S
Cu14   O8      1.814   1_554 S
Cu15   O10     1.814   1_554 S
Cu15   O9      1.814   1_554 S
Cu16   O24     1.814   1_554 S
Cu16   O23     1.814   1_554 S
