data_sst-PcM_O-Zntet
_audit_creation_date              2021-11-06
_audit_creation_method            'Materials Studio'
_symmetry_space_group_name_H-M    'P1'
_symmetry_Int_Tables_number       1
_symmetry_cell_setting            triclinic
loop_
_symmetry_equiv_pos_as_xyz
  x,y,z
_cell_length_a                    71.0604
_cell_length_b                    71.0604
_cell_length_c                    71.0604
_cell_angle_alpha                 89.9962
_cell_angle_beta                  89.9966
_cell_angle_gamma                 89.9961
loop_
_atom_site_label
_atom_site_type_symbol
_atom_site_fract_x
_atom_site_fract_y
_atom_site_fract_z
_atom_site_U_iso_or_equiv
_atom_site_adp_type
_atom_site_occupancy
C1     C     0.10597   0.19973   0.37417   0.00000  Uiso   1.00
C2     C     0.11595   0.21683   0.37408   0.00000  Uiso   1.00
C3     C     0.13602   0.21684   0.37407   0.00000  Uiso   1.00
C4     C     0.14601   0.19975   0.37415   0.00000  Uiso   1.00
C5     C     0.13557   0.18311   0.37424   0.00000  Uiso   1.00
C6     C     0.11643   0.18310   0.37425   0.00000  Uiso   1.00
C7     C     0.11097   0.16452   0.37437   0.00000  Uiso   1.00
N1     N     0.12600   0.15268   0.37442   0.00000  Uiso   1.00
C8     C     0.14104   0.16452   0.37434   0.00000  Uiso   1.00
N2     N     0.15906   0.15907   0.37430   0.00000  Uiso   1.00
C9     C     0.16451   0.14104   0.37434   0.00000  Uiso   1.00
N3     N     0.15267   0.12601   0.37442   0.00000  Uiso   1.00
C10    C     0.16451   0.11098   0.37437   0.00000  Uiso   1.00
C11    C     0.18309   0.11644   0.37426   0.00000  Uiso   1.00
C12    C     0.18310   0.13558   0.37424   0.00000  Uiso   1.00
N4     N     0.12600   0.09933   0.37469   0.00000  Uiso   1.00
C13    C     0.14105   0.08750   0.37462   0.00000  Uiso   1.00
N5     N     0.15907   0.09295   0.37446   0.00000  Uiso   1.00
C14    C     0.13560   0.06892   0.37475   0.00000  Uiso   1.00
C15    C     0.11642   0.06891   0.37492   0.00000  Uiso   1.00
C16    C     0.11096   0.08750   0.37488   0.00000  Uiso   1.00
C17    C     0.19974   0.14602   0.37415   0.00000  Uiso   1.00
C18    C     0.21683   0.13603   0.37407   0.00000  Uiso   1.00
C19    C     0.21682   0.11595   0.37408   0.00000  Uiso   1.00
C20    C     0.19973   0.10598   0.37418   0.00000  Uiso   1.00
C21    C     0.10600   0.05221   0.37508   0.00000  Uiso   1.00
C22    C     0.11625   0.03528   0.37505   0.00000  Uiso   1.00
C23    C     0.13579   0.03528   0.37488   0.00000  Uiso   1.00
C24    C     0.14602   0.05222   0.37473   0.00000  Uiso   1.00
N6     N     0.09932   0.12601   0.37470   0.00000  Uiso   1.00
C25    C     0.08749   0.11097   0.37489   0.00000  Uiso   1.00
N7     N     0.09294   0.09295   0.37498   0.00000  Uiso   1.00
C26    C     0.06891   0.11642   0.37494   0.00000  Uiso   1.00
C27    C     0.06891   0.13561   0.37477   0.00000  Uiso   1.00
C28    C     0.08749   0.14105   0.37463   0.00000  Uiso   1.00
C29    C     0.05221   0.14603   0.37475   0.00000  Uiso   1.00
C30    C     0.03528   0.13579   0.37491   0.00000  Uiso   1.00
C31    C     0.03527   0.11626   0.37508   0.00000  Uiso   1.00
C32    C     0.05221   0.10601   0.37510   0.00000  Uiso   1.00
N8     N     0.09295   0.15907   0.37446   0.00000  Uiso   1.00
H1     H     0.09074   0.19950   0.37418   0.00000  Uiso   1.00
O1     O     0.10632   0.23394   0.37400   0.00000  Uiso   1.00
O2     O     0.14562   0.23396   0.37401   0.00000  Uiso   1.00
H2     H     0.16124   0.19953   0.37415   0.00000  Uiso   1.00
H3     H     0.19952   0.16125   0.37414   0.00000  Uiso   1.00
O3     O     0.23395   0.14563   0.37400   0.00000  Uiso   1.00
O4     O     0.23393   0.10633   0.37401   0.00000  Uiso   1.00
H4     H     0.19949   0.09075   0.37419   0.00000  Uiso   1.00
H5     H     0.09077   0.05229   0.37521   0.00000  Uiso   1.00
O5     O     0.10775   0.01781   0.37518   0.00000  Uiso   1.00
O6     O     0.14430   0.01782   0.37486   0.00000  Uiso   1.00
H6     H     0.16125   0.05230   0.37459   0.00000  Uiso   1.00
H7     H     0.05229   0.16126   0.37462   0.00000  Uiso   1.00
O7     O     0.01781   0.14430   0.37490   0.00000  Uiso   1.00
O8     O     0.01781   0.10775   0.37521   0.00000  Uiso   1.00
H8     H     0.05228   0.09078   0.37522   0.00000  Uiso   1.00
Ni1    Ni    0.12600   0.12601   0.37456   0.00000  Uiso   1.00
C33    C     0.85396   0.19975   0.37412   0.00000  Uiso   1.00
C34    C     0.86395   0.21684   0.37405   0.00000  Uiso   1.00
C35    C     0.88403   0.21683   0.37407   0.00000  Uiso   1.00
C36    C     0.89400   0.19974   0.37417   0.00000  Uiso   1.00
C37    C     0.88355   0.18310   0.37424   0.00000  Uiso   1.00
C38    C     0.86440   0.18311   0.37422   0.00000  Uiso   1.00
C39    C     0.85894   0.16452   0.37430   0.00000  Uiso   1.00
N9     N     0.87398   0.15268   0.37439   0.00000  Uiso   1.00
C40    C     0.88901   0.16452   0.37436   0.00000  Uiso   1.00
N10    N     0.90703   0.15908   0.37446   0.00000  Uiso   1.00
C41    C     0.91249   0.14106   0.37461   0.00000  Uiso   1.00
N11    N     0.90066   0.12601   0.37467   0.00000  Uiso   1.00
C42    C     0.91249   0.11097   0.37486   0.00000  Uiso   1.00
C43    C     0.93108   0.11642   0.37492   0.00000  Uiso   1.00
C44    C     0.93107   0.13561   0.37475   0.00000  Uiso   1.00
N12    N     0.87399   0.09933   0.37465   0.00000  Uiso   1.00
C45    C     0.88903   0.08750   0.37484   0.00000  Uiso   1.00
N13    N     0.90705   0.09295   0.37494   0.00000  Uiso   1.00
C46    C     0.88358   0.06892   0.37487   0.00000  Uiso   1.00
C47    C     0.86439   0.06892   0.37470   0.00000  Uiso   1.00
C48    C     0.85894   0.08750   0.37457   0.00000  Uiso   1.00
C49    C     0.94777   0.14603   0.37475   0.00000  Uiso   1.00
C50    C     0.96471   0.13579   0.37491   0.00000  Uiso   1.00
C51    C     0.96471   0.11626   0.37507   0.00000  Uiso   1.00
C52    C     0.94778   0.10601   0.37508   0.00000  Uiso   1.00
C53    C     0.85397   0.05222   0.37467   0.00000  Uiso   1.00
C54    C     0.86421   0.03529   0.37481   0.00000  Uiso   1.00
C55    C     0.88375   0.03528   0.37498   0.00000  Uiso   1.00
C56    C     0.89399   0.05222   0.37502   0.00000  Uiso   1.00
N14    N     0.84731   0.12601   0.37438   0.00000  Uiso   1.00
C57    C     0.83548   0.11098   0.37433   0.00000  Uiso   1.00
N15    N     0.84092   0.09296   0.37442   0.00000  Uiso   1.00
C58    C     0.81689   0.11644   0.37421   0.00000  Uiso   1.00
C59    C     0.81688   0.13558   0.37420   0.00000  Uiso   1.00
C60    C     0.83547   0.14104   0.37429   0.00000  Uiso   1.00
C61    C     0.80024   0.14602   0.37410   0.00000  Uiso   1.00
C62    C     0.78315   0.13603   0.37402   0.00000  Uiso   1.00
C63    C     0.78317   0.11595   0.37403   0.00000  Uiso   1.00
C64    C     0.80026   0.10598   0.37413   0.00000  Uiso   1.00
N16    N     0.84092   0.15907   0.37426   0.00000  Uiso   1.00
H9     H     0.83873   0.19953   0.37410   0.00000  Uiso   1.00
O9     O     0.85435   0.23396   0.37398   0.00000  Uiso   1.00
O10    O     0.89364   0.23394   0.37401   0.00000  Uiso   1.00
H10    H     0.90923   0.19951   0.37420   0.00000  Uiso   1.00
H11    H     0.94769   0.16126   0.37462   0.00000  Uiso   1.00
O11    O     0.98217   0.14430   0.37490   0.00000  Uiso   1.00
O12    O     0.98218   0.10775   0.37521   0.00000  Uiso   1.00
H12    H     0.94771   0.09078   0.37520   0.00000  Uiso   1.00
H13    H     0.83874   0.05230   0.37453   0.00000  Uiso   1.00
O13    O     0.85570   0.01782   0.37479   0.00000  Uiso   1.00
O14    O     0.89225   0.01782   0.37511   0.00000  Uiso   1.00
H14    H     0.90922   0.05229   0.37515   0.00000  Uiso   1.00
H15    H     0.80046   0.16125   0.37409   0.00000  Uiso   1.00
O15    O     0.76603   0.14562   0.37395   0.00000  Uiso   1.00
O16    O     0.76606   0.10633   0.37396   0.00000  Uiso   1.00
H16    H     0.80049   0.09075   0.37415   0.00000  Uiso   1.00
Ni2    Ni    0.87398   0.12601   0.37452   0.00000  Uiso   1.00
C65    C     0.85398   0.94778   0.37464   0.00000  Uiso   1.00
C66    C     0.86421   0.96472   0.37479   0.00000  Uiso   1.00
C67    C     0.88375   0.96472   0.37496   0.00000  Uiso   1.00
C68    C     0.89399   0.94779   0.37498   0.00000  Uiso   1.00
C69    C     0.88358   0.93109   0.37483   0.00000  Uiso   1.00
C70    C     0.86440   0.93108   0.37466   0.00000  Uiso   1.00
C71    C     0.85895   0.91250   0.37452   0.00000  Uiso   1.00
N17    N     0.87400   0.90067   0.37460   0.00000  Uiso   1.00
C72    C     0.88904   0.91250   0.37478   0.00000  Uiso   1.00
N18    N     0.90706   0.90706   0.37488   0.00000  Uiso   1.00
C73    C     0.91251   0.88903   0.37480   0.00000  Uiso   1.00
N19    N     0.90068   0.87399   0.37461   0.00000  Uiso   1.00
C74    C     0.91251   0.85895   0.37453   0.00000  Uiso   1.00
C75    C     0.93109   0.86440   0.37467   0.00000  Uiso   1.00
C76    C     0.93109   0.88358   0.37485   0.00000  Uiso   1.00
N20    N     0.87400   0.84732   0.37433   0.00000  Uiso   1.00
C77    C     0.88903   0.83548   0.37428   0.00000  Uiso   1.00
N21    N     0.90706   0.84093   0.37437   0.00000  Uiso   1.00
C78    C     0.88358   0.81690   0.37417   0.00000  Uiso   1.00
C79    C     0.86443   0.81689   0.37416   0.00000  Uiso   1.00
C80    C     0.85897   0.83548   0.37425   0.00000  Uiso   1.00
C81    C     0.94779   0.89399   0.37501   0.00000  Uiso   1.00
C82    C     0.96473   0.88375   0.37500   0.00000  Uiso   1.00
C83    C     0.96472   0.86422   0.37482   0.00000  Uiso   1.00
C84    C     0.94779   0.85398   0.37466   0.00000  Uiso   1.00
C85    C     0.85399   0.80025   0.37407   0.00000  Uiso   1.00
C86    C     0.86399   0.78316   0.37400   0.00000  Uiso   1.00
C87    C     0.88406   0.78317   0.37400   0.00000  Uiso   1.00
C88    C     0.89403   0.80027   0.37409   0.00000  Uiso   1.00
N22    N     0.84733   0.87399   0.37433   0.00000  Uiso   1.00
C89    C     0.83549   0.85896   0.37425   0.00000  Uiso   1.00
N23    N     0.84094   0.84093   0.37422   0.00000  Uiso   1.00
C90    C     0.81690   0.86442   0.37417   0.00000  Uiso   1.00
C91    C     0.81690   0.88356   0.37418   0.00000  Uiso   1.00
C92    C     0.83549   0.88902   0.37429   0.00000  Uiso   1.00
C93    C     0.80027   0.89401   0.37410   0.00000  Uiso   1.00
C94    C     0.78318   0.88404   0.37401   0.00000  Uiso   1.00
C95    C     0.78317   0.86397   0.37400   0.00000  Uiso   1.00
C96    C     0.80026   0.85398   0.37408   0.00000  Uiso   1.00
N24    N     0.84093   0.90705   0.37437   0.00000  Uiso   1.00
H17    H     0.83875   0.94770   0.37450   0.00000  Uiso   1.00
O17    O     0.85570   0.98218   0.37478   0.00000  Uiso   1.00
O18    O     0.89225   0.98219   0.37509   0.00000  Uiso   1.00
H18    H     0.90923   0.94771   0.37511   0.00000  Uiso   1.00
H19    H     0.94772   0.90923   0.37514   0.00000  Uiso   1.00
O19    O     0.98219   0.89226   0.37514   0.00000  Uiso   1.00
O20    O     0.98219   0.85571   0.37482   0.00000  Uiso   1.00
H20    H     0.94771   0.83875   0.37453   0.00000  Uiso   1.00
H21    H     0.83876   0.80047   0.37407   0.00000  Uiso   1.00
O21    O     0.85439   0.76604   0.37394   0.00000  Uiso   1.00
O22    O     0.89368   0.76607   0.37393   0.00000  Uiso   1.00
H22    H     0.90926   0.80050   0.37410   0.00000  Uiso   1.00
H23    H     0.80050   0.90925   0.37411   0.00000  Uiso   1.00
O23    O     0.76607   0.89366   0.37393   0.00000  Uiso   1.00
O24    O     0.76605   0.85437   0.37394   0.00000  Uiso   1.00
H24    H     0.80048   0.83875   0.37408   0.00000  Uiso   1.00
Ni3    Ni    0.87400   0.87399   0.37447   0.00000  Uiso   1.00
C97    C     0.10601   0.94778   0.37506   0.00000  Uiso   1.00
C98    C     0.11626   0.96472   0.37504   0.00000  Uiso   1.00
C99    C     0.13579   0.96472   0.37487   0.00000  Uiso   1.00
C100   C     0.14603   0.94778   0.37471   0.00000  Uiso   1.00
C101   C     0.13561   0.93108   0.37473   0.00000  Uiso   1.00
C102   C     0.11643   0.93108   0.37489   0.00000  Uiso   1.00
C103   C     0.11098   0.91250   0.37485   0.00000  Uiso   1.00
N25    N     0.12602   0.90067   0.37466   0.00000  Uiso   1.00
C104   C     0.14106   0.91250   0.37459   0.00000  Uiso   1.00
N26    N     0.15908   0.90704   0.37443   0.00000  Uiso   1.00
C105   C     0.16452   0.88902   0.37434   0.00000  Uiso   1.00
N27    N     0.15269   0.87399   0.37438   0.00000  Uiso   1.00
C106   C     0.16453   0.85895   0.37430   0.00000  Uiso   1.00
C107   C     0.18311   0.86441   0.37421   0.00000  Uiso   1.00
C108   C     0.18311   0.88356   0.37423   0.00000  Uiso   1.00
N28    N     0.12602   0.84732   0.37437   0.00000  Uiso   1.00
C109   C     0.14105   0.83548   0.37429   0.00000  Uiso   1.00
N29    N     0.15908   0.84093   0.37426   0.00000  Uiso   1.00
C110   C     0.13559   0.81689   0.37419   0.00000  Uiso   1.00
C111   C     0.11645   0.81690   0.37420   0.00000  Uiso   1.00
C112   C     0.11099   0.83548   0.37432   0.00000  Uiso   1.00
C113   C     0.19974   0.89401   0.37415   0.00000  Uiso   1.00
C114   C     0.21684   0.88403   0.37406   0.00000  Uiso   1.00
C115   C     0.21684   0.86396   0.37405   0.00000  Uiso   1.00
C116   C     0.19975   0.85397   0.37412   0.00000  Uiso   1.00
C117   C     0.10600   0.80027   0.37412   0.00000  Uiso   1.00
C118   C     0.11597   0.78317   0.37402   0.00000  Uiso   1.00
C119   C     0.13604   0.78316   0.37402   0.00000  Uiso   1.00
C120   C     0.14603   0.80025   0.37410   0.00000  Uiso   1.00
N30    N     0.09934   0.87399   0.37466   0.00000  Uiso   1.00
C121   C     0.08751   0.85895   0.37458   0.00000  Uiso   1.00
N31    N     0.09296   0.84093   0.37441   0.00000  Uiso   1.00
C122   C     0.06892   0.86439   0.37472   0.00000  Uiso   1.00
C123   C     0.06892   0.88358   0.37489   0.00000  Uiso   1.00
C124   C     0.08751   0.88903   0.37485   0.00000  Uiso   1.00
C125   C     0.05222   0.89399   0.37505   0.00000  Uiso   1.00
C126   C     0.03529   0.88375   0.37502   0.00000  Uiso   1.00
C127   C     0.03529   0.86422   0.37485   0.00000  Uiso   1.00
C128   C     0.05223   0.85398   0.37470   0.00000  Uiso   1.00
N32    N     0.09295   0.90705   0.37494   0.00000  Uiso   1.00
H25    H     0.09078   0.94771   0.37519   0.00000  Uiso   1.00
O25    O     0.10775   0.98218   0.37517   0.00000  Uiso   1.00
O26    O     0.14430   0.98218   0.37485   0.00000  Uiso   1.00
H26    H     0.16126   0.94770   0.37457   0.00000  Uiso   1.00
H27    H     0.19951   0.90924   0.37417   0.00000  Uiso   1.00
O27    O     0.23394   0.89365   0.37399   0.00000  Uiso   1.00
O28    O     0.23396   0.85436   0.37398   0.00000  Uiso   1.00
H28    H     0.19953   0.83874   0.37411   0.00000  Uiso   1.00
H29    H     0.09076   0.80050   0.37413   0.00000  Uiso   1.00
O29    O     0.10635   0.76606   0.37395   0.00000  Uiso   1.00
O30    O     0.14564   0.76604   0.37396   0.00000  Uiso   1.00
H30    H     0.16127   0.80047   0.37409   0.00000  Uiso   1.00
H31    H     0.05230   0.90923   0.37518   0.00000  Uiso   1.00
O31    O     0.01782   0.89226   0.37516   0.00000  Uiso   1.00
O32    O     0.01783   0.85571   0.37484   0.00000  Uiso   1.00
H32    H     0.05231   0.83875   0.37456   0.00000  Uiso   1.00
Ni4    Ni    0.12601   0.87399   0.37452   0.00000  Uiso   1.00
C129   C     0.10602   0.94780   0.62464   0.00000  Uiso   1.00
C130   C     0.11626   0.96473   0.62466   0.00000  Uiso   1.00
C131   C     0.13580   0.96473   0.62485   0.00000  Uiso   1.00
C132   C     0.14604   0.94780   0.62502   0.00000  Uiso   1.00
C133   C     0.13562   0.93110   0.62500   0.00000  Uiso   1.00
C134   C     0.11643   0.93110   0.62481   0.00000  Uiso   1.00
C135   C     0.11098   0.91252   0.62486   0.00000  Uiso   1.00
N33    N     0.12602   0.90068   0.62507   0.00000  Uiso   1.00
C136   C     0.14107   0.91251   0.62515   0.00000  Uiso   1.00
N34    N     0.15909   0.90706   0.62533   0.00000  Uiso   1.00
C137   C     0.16453   0.88904   0.62544   0.00000  Uiso   1.00
N35    N     0.15270   0.87401   0.62539   0.00000  Uiso   1.00
C138   C     0.16453   0.85897   0.62549   0.00000  Uiso   1.00
C139   C     0.18312   0.86443   0.62559   0.00000  Uiso   1.00
C140   C     0.18312   0.88358   0.62557   0.00000  Uiso   1.00
N36    N     0.12603   0.84733   0.62538   0.00000  Uiso   1.00
C141   C     0.14106   0.83550   0.62547   0.00000  Uiso   1.00
N37    N     0.15909   0.84095   0.62552   0.00000  Uiso   1.00
C142   C     0.13560   0.81691   0.62557   0.00000  Uiso   1.00
C143   C     0.11646   0.81691   0.62555   0.00000  Uiso   1.00
C144   C     0.11100   0.83550   0.62543   0.00000  Uiso   1.00
C145   C     0.19975   0.89403   0.62566   0.00000  Uiso   1.00
C146   C     0.21684   0.88406   0.62577   0.00000  Uiso   1.00
C147   C     0.21685   0.86398   0.62579   0.00000  Uiso   1.00
C148   C     0.19976   0.85399   0.62571   0.00000  Uiso   1.00
C149   C     0.10601   0.80028   0.62563   0.00000  Uiso   1.00
C150   C     0.11598   0.78319   0.62574   0.00000  Uiso   1.00
C151   C     0.13605   0.78318   0.62575   0.00000  Uiso   1.00
C152   C     0.14604   0.80027   0.62568   0.00000  Uiso   1.00
N38    N     0.09935   0.87401   0.62507   0.00000  Uiso   1.00
C153   C     0.08752   0.85896   0.62515   0.00000  Uiso   1.00
N39    N     0.09297   0.84094   0.62532   0.00000  Uiso   1.00
C154   C     0.06893   0.86441   0.62500   0.00000  Uiso   1.00
C155   C     0.06893   0.88359   0.62481   0.00000  Uiso   1.00
C156   C     0.08751   0.88905   0.62486   0.00000  Uiso   1.00
C157   C     0.05223   0.89401   0.62463   0.00000  Uiso   1.00
C158   C     0.03530   0.88377   0.62466   0.00000  Uiso   1.00
C159   C     0.03530   0.86423   0.62485   0.00000  Uiso   1.00
C160   C     0.05223   0.85399   0.62502   0.00000  Uiso   1.00
N40    N     0.09296   0.90707   0.62476   0.00000  Uiso   1.00
H33    H     0.09079   0.94773   0.62449   0.00000  Uiso   1.00
O33    O     0.10776   0.98220   0.62452   0.00000  Uiso   1.00
O34    O     0.14430   0.98220   0.62487   0.00000  Uiso   1.00
H34    H     0.16127   0.94772   0.62517   0.00000  Uiso   1.00
H35    H     0.19952   0.90926   0.62564   0.00000  Uiso   1.00
O35    O     0.23395   0.89368   0.62585   0.00000  Uiso   1.00
O36    O     0.23397   0.85438   0.62587   0.00000  Uiso   1.00
H36    H     0.19954   0.83876   0.62571   0.00000  Uiso   1.00
H37    H     0.09077   0.80051   0.62561   0.00000  Uiso   1.00
O37    O     0.10636   0.76608   0.62582   0.00000  Uiso   1.00
O38    O     0.14566   0.76606   0.62583   0.00000  Uiso   1.00
H38    H     0.16127   0.80049   0.62569   0.00000  Uiso   1.00
H39    H     0.05230   0.90924   0.62449   0.00000  Uiso   1.00
O39    O     0.01783   0.89227   0.62451   0.00000  Uiso   1.00
O40    O     0.01783   0.85572   0.62486   0.00000  Uiso   1.00
H40    H     0.05231   0.83876   0.62517   0.00000  Uiso   1.00
Ni5    Ni    0.12602   0.87401   0.62522   0.00000  Uiso   1.00
C161   C     0.10599   0.19975   0.62569   0.00000  Uiso   1.00
C162   C     0.11596   0.21684   0.62580   0.00000  Uiso   1.00
C163   C     0.13604   0.21685   0.62581   0.00000  Uiso   1.00
C164   C     0.14602   0.19976   0.62574   0.00000  Uiso   1.00
C165   C     0.13559   0.18312   0.62563   0.00000  Uiso   1.00
C166   C     0.11644   0.18312   0.62560   0.00000  Uiso   1.00
C167   C     0.11098   0.16453   0.62548   0.00000  Uiso   1.00
N41    N     0.12602   0.15270   0.62544   0.00000  Uiso   1.00
C168   C     0.14105   0.16453   0.62553   0.00000  Uiso   1.00
N42    N     0.15907   0.15908   0.62557   0.00000  Uiso   1.00
C169   C     0.16452   0.14106   0.62554   0.00000  Uiso   1.00
N43    N     0.15269   0.12602   0.62544   0.00000  Uiso   1.00
C170   C     0.16452   0.11099   0.62549   0.00000  Uiso   1.00
C171   C     0.18311   0.11645   0.62562   0.00000  Uiso   1.00
C172   C     0.18311   0.13559   0.62564   0.00000  Uiso   1.00
N44    N     0.12601   0.09935   0.62513   0.00000  Uiso   1.00
C173   C     0.14106   0.08752   0.62521   0.00000  Uiso   1.00
N45    N     0.15908   0.09297   0.62539   0.00000  Uiso   1.00
C174   C     0.13561   0.06893   0.62505   0.00000  Uiso   1.00
C175   C     0.11643   0.06893   0.62486   0.00000  Uiso   1.00
C176   C     0.11097   0.08751   0.62492   0.00000  Uiso   1.00
C177   C     0.19975   0.14603   0.62574   0.00000  Uiso   1.00
C178   C     0.21684   0.13604   0.62582   0.00000  Uiso   1.00
C179   C     0.21683   0.11597   0.62581   0.00000  Uiso   1.00
C180   C     0.19974   0.10599   0.62570   0.00000  Uiso   1.00
C181   C     0.10601   0.05223   0.62468   0.00000  Uiso   1.00
C182   C     0.11626   0.03530   0.62470   0.00000  Uiso   1.00
C183   C     0.13579   0.03530   0.62489   0.00000  Uiso   1.00
C184   C     0.14603   0.05223   0.62507   0.00000  Uiso   1.00
N46    N     0.09933   0.12603   0.62513   0.00000  Uiso   1.00
C185   C     0.08750   0.11099   0.62492   0.00000  Uiso   1.00
N47    N     0.09295   0.09296   0.62482   0.00000  Uiso   1.00
C186   C     0.06892   0.11644   0.62487   0.00000  Uiso   1.00
C187   C     0.06892   0.13563   0.62506   0.00000  Uiso   1.00
C188   C     0.08751   0.14107   0.62520   0.00000  Uiso   1.00
C189   C     0.05222   0.14604   0.62508   0.00000  Uiso   1.00
C190   C     0.03529   0.13581   0.62492   0.00000  Uiso   1.00
C191   C     0.03529   0.11627   0.62473   0.00000  Uiso   1.00
C192   C     0.05222   0.10603   0.62470   0.00000  Uiso   1.00
N48    N     0.09296   0.15909   0.62538   0.00000  Uiso   1.00
H41    H     0.09076   0.19952   0.62566   0.00000  Uiso   1.00
O41    O     0.10634   0.23395   0.62587   0.00000  Uiso   1.00
O42    O     0.14563   0.23397   0.62589   0.00000  Uiso   1.00
H42    H     0.16126   0.19954   0.62575   0.00000  Uiso   1.00
H43    H     0.19953   0.16126   0.62575   0.00000  Uiso   1.00
O43    O     0.23396   0.14564   0.62589   0.00000  Uiso   1.00
O44    O     0.23394   0.10634   0.62588   0.00000  Uiso   1.00
H44    H     0.19951   0.09076   0.62569   0.00000  Uiso   1.00
H45    H     0.09078   0.05231   0.62454   0.00000  Uiso   1.00
O45    O     0.10775   0.01783   0.62454   0.00000  Uiso   1.00
O46    O     0.14430   0.01783   0.62489   0.00000  Uiso   1.00
H46    H     0.16126   0.05231   0.62521   0.00000  Uiso   1.00
H47    H     0.05230   0.16128   0.62523   0.00000  Uiso   1.00
O47    O     0.01782   0.14432   0.62493   0.00000  Uiso   1.00
O48    O     0.01782   0.10777   0.62459   0.00000  Uiso   1.00
H48    H     0.05229   0.09080   0.62456   0.00000  Uiso   1.00
Ni6    Ni    0.12601   0.12602   0.62528   0.00000  Uiso   1.00
C193   C     0.85398   0.19977   0.62570   0.00000  Uiso   1.00
C194   C     0.86397   0.21686   0.62579   0.00000  Uiso   1.00
C195   C     0.88405   0.21685   0.62578   0.00000  Uiso   1.00
C196   C     0.89402   0.19975   0.62567   0.00000  Uiso   1.00
C197   C     0.88357   0.18312   0.62558   0.00000  Uiso   1.00
C198   C     0.86442   0.18313   0.62559   0.00000  Uiso   1.00
C199   C     0.85896   0.16454   0.62548   0.00000  Uiso   1.00
N49    N     0.87399   0.15270   0.62540   0.00000  Uiso   1.00
C200   C     0.88902   0.16454   0.62545   0.00000  Uiso   1.00
N50    N     0.90705   0.15909   0.62536   0.00000  Uiso   1.00
C201   C     0.91250   0.14107   0.62518   0.00000  Uiso   1.00
N51    N     0.90067   0.12603   0.62509   0.00000  Uiso   1.00
C202   C     0.91251   0.11099   0.62489   0.00000  Uiso   1.00
C203   C     0.93109   0.11644   0.62485   0.00000  Uiso   1.00
C204   C     0.93109   0.13563   0.62504   0.00000  Uiso   1.00
N52    N     0.87400   0.09935   0.62508   0.00000  Uiso   1.00
C205   C     0.88904   0.08752   0.62487   0.00000  Uiso   1.00
N53    N     0.90706   0.09297   0.62478   0.00000  Uiso   1.00
C206   C     0.88358   0.06893   0.62482   0.00000  Uiso   1.00
C207   C     0.86440   0.06894   0.62500   0.00000  Uiso   1.00
C208   C     0.85895   0.08752   0.62515   0.00000  Uiso   1.00
C209   C     0.94778   0.14604   0.62507   0.00000  Uiso   1.00
C210   C     0.96472   0.13581   0.62491   0.00000  Uiso   1.00
C211   C     0.96472   0.11627   0.62472   0.00000  Uiso   1.00
C212   C     0.94779   0.10603   0.62469   0.00000  Uiso   1.00
C213   C     0.85398   0.05224   0.62501   0.00000  Uiso   1.00
C214   C     0.86422   0.03530   0.62484   0.00000  Uiso   1.00
C215   C     0.88376   0.03530   0.62466   0.00000  Uiso   1.00
C216   C     0.89400   0.05223   0.62464   0.00000  Uiso   1.00
N54    N     0.84732   0.12603   0.62539   0.00000  Uiso   1.00
C217   C     0.83549   0.11100   0.62544   0.00000  Uiso   1.00
N55    N     0.84093   0.09298   0.62533   0.00000  Uiso   1.00
C218   C     0.81690   0.11646   0.62556   0.00000  Uiso   1.00
C219   C     0.81690   0.13560   0.62558   0.00000  Uiso   1.00
C220   C     0.83548   0.14107   0.62548   0.00000  Uiso   1.00
C221   C     0.80025   0.14604   0.62568   0.00000  Uiso   1.00
C222   C     0.78316   0.13605   0.62576   0.00000  Uiso   1.00
C223   C     0.78318   0.11598   0.62575   0.00000  Uiso   1.00
C224   C     0.80027   0.10601   0.62564   0.00000  Uiso   1.00
N56    N     0.84093   0.15909   0.62552   0.00000  Uiso   1.00
H49    H     0.83875   0.19956   0.62570   0.00000  Uiso   1.00
O49    O     0.85438   0.23398   0.62587   0.00000  Uiso   1.00
O50    O     0.89367   0.23395   0.62587   0.00000  Uiso   1.00
H50    H     0.90925   0.19952   0.62566   0.00000  Uiso   1.00
H51    H     0.94770   0.16128   0.62522   0.00000  Uiso   1.00
O51    O     0.98219   0.14432   0.62493   0.00000  Uiso   1.00
O52    O     0.98219   0.10777   0.62458   0.00000  Uiso   1.00
H52    H     0.94772   0.09080   0.62454   0.00000  Uiso   1.00
H53    H     0.83875   0.05232   0.62516   0.00000  Uiso   1.00
O53    O     0.85571   0.01784   0.62484   0.00000  Uiso   1.00
O54    O     0.89226   0.01783   0.62450   0.00000  Uiso   1.00
H54    H     0.90923   0.05231   0.62450   0.00000  Uiso   1.00
H55    H     0.80047   0.16128   0.62569   0.00000  Uiso   1.00
O55    O     0.76604   0.14565   0.62584   0.00000  Uiso   1.00
O56    O     0.76607   0.10636   0.62583   0.00000  Uiso   1.00
H56    H     0.80050   0.09077   0.62563   0.00000  Uiso   1.00
Ni7    Ni    0.87400   0.12603   0.62524   0.00000  Uiso   1.00
C225   C     0.85398   0.94780   0.62499   0.00000  Uiso   1.00
C226   C     0.86422   0.96474   0.62482   0.00000  Uiso   1.00
C227   C     0.88376   0.96474   0.62464   0.00000  Uiso   1.00
C228   C     0.89400   0.94780   0.62462   0.00000  Uiso   1.00
C229   C     0.88359   0.93111   0.62479   0.00000  Uiso   1.00
C230   C     0.86440   0.93110   0.62498   0.00000  Uiso   1.00
C231   C     0.85896   0.91252   0.62513   0.00000  Uiso   1.00
N57    N     0.87400   0.90069   0.62505   0.00000  Uiso   1.00
C232   C     0.88904   0.91252   0.62484   0.00000  Uiso   1.00
N58    N     0.90707   0.90707   0.62475   0.00000  Uiso   1.00
C233   C     0.91252   0.88905   0.62485   0.00000  Uiso   1.00
N59    N     0.90068   0.87401   0.62506   0.00000  Uiso   1.00
C234   C     0.91251   0.85897   0.62514   0.00000  Uiso   1.00
C235   C     0.93110   0.86441   0.62500   0.00000  Uiso   1.00
C236   C     0.93110   0.88360   0.62481   0.00000  Uiso   1.00
N60    N     0.87401   0.84734   0.62537   0.00000  Uiso   1.00
C237   C     0.88904   0.83550   0.62542   0.00000  Uiso   1.00
N61    N     0.90706   0.84095   0.62532   0.00000  Uiso   1.00
C238   C     0.88358   0.81692   0.62554   0.00000  Uiso   1.00
C239   C     0.86444   0.81691   0.62556   0.00000  Uiso   1.00
C240   C     0.85897   0.83550   0.62546   0.00000  Uiso   1.00
C241   C     0.94780   0.89401   0.62464   0.00000  Uiso   1.00
C242   C     0.96473   0.88377   0.62466   0.00000  Uiso   1.00
C243   C     0.96473   0.86423   0.62485   0.00000  Uiso   1.00
C244   C     0.94780   0.85400   0.62502   0.00000  Uiso   1.00
C245   C     0.85400   0.80027   0.62566   0.00000  Uiso   1.00
C246   C     0.86400   0.78318   0.62575   0.00000  Uiso   1.00
C247   C     0.88407   0.78319   0.62574   0.00000  Uiso   1.00
C248   C     0.89404   0.80029   0.62563   0.00000  Uiso   1.00
N62    N     0.84733   0.87401   0.62536   0.00000  Uiso   1.00
C249   C     0.83550   0.85897   0.62546   0.00000  Uiso   1.00
N63    N     0.84095   0.84095   0.62549   0.00000  Uiso   1.00
C250   C     0.81691   0.86444   0.62556   0.00000  Uiso   1.00
C251   C     0.81691   0.88358   0.62554   0.00000  Uiso   1.00
C252   C     0.83550   0.88904   0.62541   0.00000  Uiso   1.00
C253   C     0.80028   0.89403   0.62562   0.00000  Uiso   1.00
C254   C     0.78319   0.88406   0.62573   0.00000  Uiso   1.00
C255   C     0.78318   0.86399   0.62574   0.00000  Uiso   1.00
C256   C     0.80027   0.85400   0.62566   0.00000  Uiso   1.00
N64    N     0.84094   0.90707   0.62530   0.00000  Uiso   1.00
H57    H     0.83875   0.94772   0.62514   0.00000  Uiso   1.00
O57    O     0.85571   0.98220   0.62484   0.00000  Uiso   1.00
O58    O     0.89226   0.98220   0.62449   0.00000  Uiso   1.00
H58    H     0.90923   0.94773   0.62448   0.00000  Uiso   1.00
H59    H     0.94772   0.90924   0.62449   0.00000  Uiso   1.00
O59    O     0.98220   0.89227   0.62452   0.00000  Uiso   1.00
O60    O     0.98220   0.85573   0.62487   0.00000  Uiso   1.00
H60    H     0.94772   0.83876   0.62517   0.00000  Uiso   1.00
H61    H     0.83877   0.80049   0.62567   0.00000  Uiso   1.00
O61    O     0.85440   0.76606   0.62582   0.00000  Uiso   1.00
O62    O     0.89369   0.76609   0.62582   0.00000  Uiso   1.00
H62    H     0.90927   0.80052   0.62562   0.00000  Uiso   1.00
H63    H     0.80051   0.90927   0.62560   0.00000  Uiso   1.00
O63    O     0.76608   0.89368   0.62581   0.00000  Uiso   1.00
O64    O     0.76606   0.85439   0.62582   0.00000  Uiso   1.00
H64    H     0.80049   0.83876   0.62567   0.00000  Uiso   1.00
Ni8    Ni    0.87401   0.87401   0.62521   0.00000  Uiso   1.00
C257   C     0.37486   0.05222   0.14594   0.00000  Uiso   1.00
C258   C     0.37502   0.03528   0.13571   0.00000  Uiso   1.00
C259   C     0.37519   0.03528   0.11617   0.00000  Uiso   1.00
C260   C     0.37521   0.05222   0.10593   0.00000  Uiso   1.00
C261   C     0.37505   0.06892   0.11634   0.00000  Uiso   1.00
C262   C     0.37487   0.06892   0.13553   0.00000  Uiso   1.00
C263   C     0.37473   0.08750   0.14097   0.00000  Uiso   1.00
N65    N     0.37480   0.09933   0.12593   0.00000  Uiso   1.00
C264   C     0.37500   0.08750   0.11089   0.00000  Uiso   1.00
N66    N     0.37509   0.09295   0.09287   0.00000  Uiso   1.00
C265   C     0.37500   0.11097   0.08742   0.00000  Uiso   1.00
N67    N     0.37480   0.12601   0.09925   0.00000  Uiso   1.00
C266   C     0.37473   0.14106   0.08742   0.00000  Uiso   1.00
C267   C     0.37487   0.13561   0.06884   0.00000  Uiso   1.00
C268   C     0.37504   0.11643   0.06883   0.00000  Uiso   1.00
N68    N     0.37451   0.15268   0.12593   0.00000  Uiso   1.00
C269   C     0.37446   0.16452   0.11090   0.00000  Uiso   1.00
N69    N     0.37456   0.15908   0.09287   0.00000  Uiso   1.00
C270   C     0.37434   0.18310   0.11636   0.00000  Uiso   1.00
C271   C     0.37432   0.18311   0.13550   0.00000  Uiso   1.00
C272   C     0.37441   0.16452   0.14096   0.00000  Uiso   1.00
C273   C     0.37521   0.10602   0.05213   0.00000  Uiso   1.00
C274   C     0.37519   0.11626   0.03520   0.00000  Uiso   1.00
C275   C     0.37501   0.13580   0.03520   0.00000  Uiso   1.00
C276   C     0.37485   0.14603   0.05214   0.00000  Uiso   1.00
C277   C     0.37422   0.19975   0.14594   0.00000  Uiso   1.00
C278   C     0.37415   0.21684   0.13595   0.00000  Uiso   1.00
C279   C     0.37416   0.21683   0.11588   0.00000  Uiso   1.00
C280   C     0.37426   0.19974   0.10590   0.00000  Uiso   1.00
N70    N     0.37450   0.12601   0.15260   0.00000  Uiso   1.00
C281   C     0.37441   0.14104   0.16444   0.00000  Uiso   1.00
N71    N     0.37437   0.15907   0.15899   0.00000  Uiso   1.00
C282   C     0.37431   0.13558   0.18303   0.00000  Uiso   1.00
C283   C     0.37433   0.11643   0.18302   0.00000  Uiso   1.00
C284   C     0.37446   0.11098   0.16444   0.00000  Uiso   1.00
C285   C     0.37424   0.10598   0.19965   0.00000  Uiso   1.00
C286   C     0.37413   0.11595   0.21675   0.00000  Uiso   1.00
C287   C     0.37412   0.13603   0.21676   0.00000  Uiso   1.00
C288   C     0.37420   0.14602   0.19967   0.00000  Uiso   1.00
N72    N     0.37456   0.09295   0.15899   0.00000  Uiso   1.00
H65    H     0.37472   0.05230   0.16118   0.00000  Uiso   1.00
O65    O     0.37500   0.01782   0.14421   0.00000  Uiso   1.00
O66    O     0.37532   0.01782   0.10767   0.00000  Uiso   1.00
H66    H     0.37534   0.05229   0.09070   0.00000  Uiso   1.00
H67    H     0.37534   0.09078   0.05221   0.00000  Uiso   1.00
O67    O     0.37533   0.10776   0.01773   0.00000  Uiso   1.00
O68    O     0.37500   0.14431   0.01774   0.00000  Uiso   1.00
H68    H     0.37471   0.16126   0.05222   0.00000  Uiso   1.00
H69    H     0.37421   0.19953   0.16117   0.00000  Uiso   1.00
O69    O     0.37407   0.23396   0.14555   0.00000  Uiso   1.00
O70    O     0.37409   0.23394   0.10626   0.00000  Uiso   1.00
H70    H     0.37428   0.19951   0.09067   0.00000  Uiso   1.00
H71    H     0.37426   0.09075   0.19942   0.00000  Uiso   1.00
O71    O     0.37406   0.10633   0.23385   0.00000  Uiso   1.00
O72    O     0.37404   0.14562   0.23388   0.00000  Uiso   1.00
H72    H     0.37419   0.16125   0.19945   0.00000  Uiso   1.00
Ni9    Ni    0.37465   0.12601   0.12593   0.00000  Uiso   1.00
C289   C     0.85397   0.37421   0.19969   0.00000  Uiso   1.00
C290   C     0.86395   0.37413   0.21678   0.00000  Uiso   1.00
C291   C     0.88403   0.37415   0.21677   0.00000  Uiso   1.00
C292   C     0.89400   0.37425   0.19967   0.00000  Uiso   1.00
C293   C     0.88355   0.37433   0.18304   0.00000  Uiso   1.00
C294   C     0.86441   0.37431   0.18305   0.00000  Uiso   1.00
C295   C     0.85895   0.37440   0.16446   0.00000  Uiso   1.00
N73    N     0.87398   0.37448   0.15262   0.00000  Uiso   1.00
C296   C     0.88901   0.37444   0.16446   0.00000  Uiso   1.00
N74    N     0.90704   0.37454   0.15902   0.00000  Uiso   1.00
C297   C     0.91249   0.37471   0.14100   0.00000  Uiso   1.00
N75    N     0.90067   0.37478   0.12595   0.00000  Uiso   1.00
C298   C     0.91250   0.37497   0.11091   0.00000  Uiso   1.00
C299   C     0.93108   0.37502   0.11636   0.00000  Uiso   1.00
C300   C     0.93108   0.37485   0.13555   0.00000  Uiso   1.00
N76    N     0.87399   0.37477   0.09927   0.00000  Uiso   1.00
C301   C     0.88903   0.37497   0.08744   0.00000  Uiso   1.00
N77    N     0.90705   0.37506   0.09289   0.00000  Uiso   1.00
C302   C     0.88358   0.37501   0.06885   0.00000  Uiso   1.00
C303   C     0.86440   0.37483   0.06886   0.00000  Uiso   1.00
C304   C     0.85895   0.37469   0.08744   0.00000  Uiso   1.00
C305   C     0.94778   0.37483   0.14597   0.00000  Uiso   1.00
C306   C     0.96471   0.37499   0.13573   0.00000  Uiso   1.00
C307   C     0.96472   0.37516   0.11620   0.00000  Uiso   1.00
C308   C     0.94778   0.37519   0.10595   0.00000  Uiso   1.00
C309   C     0.85398   0.37481   0.05216   0.00000  Uiso   1.00
C310   C     0.86422   0.37497   0.03522   0.00000  Uiso   1.00
C311   C     0.88376   0.37515   0.03522   0.00000  Uiso   1.00
C312   C     0.89400   0.37518   0.05216   0.00000  Uiso   1.00
N78    N     0.84732   0.37447   0.12595   0.00000  Uiso   1.00
C313   C     0.83548   0.37442   0.11092   0.00000  Uiso   1.00
N79    N     0.84093   0.37452   0.09289   0.00000  Uiso   1.00
C314   C     0.81690   0.37430   0.11637   0.00000  Uiso   1.00
C315   C     0.81689   0.37429   0.13552   0.00000  Uiso   1.00
C316   C     0.83548   0.37439   0.14098   0.00000  Uiso   1.00
C317   C     0.80025   0.37419   0.14596   0.00000  Uiso   1.00
C318   C     0.78316   0.37411   0.13597   0.00000  Uiso   1.00
C319   C     0.78317   0.37412   0.11589   0.00000  Uiso   1.00
C320   C     0.80027   0.37422   0.10592   0.00000  Uiso   1.00
N80    N     0.84092   0.37436   0.15901   0.00000  Uiso   1.00
H73    H     0.83873   0.37419   0.19947   0.00000  Uiso   1.00
O73    O     0.85435   0.37406   0.23390   0.00000  Uiso   1.00
O74    O     0.89364   0.37408   0.23388   0.00000  Uiso   1.00
H74    H     0.90924   0.37427   0.19945   0.00000  Uiso   1.00
H75    H     0.94770   0.37469   0.16120   0.00000  Uiso   1.00
O75    O     0.98218   0.37498   0.14424   0.00000  Uiso   1.00
O76    O     0.98218   0.37530   0.10769   0.00000  Uiso   1.00
H76    H     0.94771   0.37532   0.09072   0.00000  Uiso   1.00
H77    H     0.83875   0.37467   0.05223   0.00000  Uiso   1.00
O77    O     0.85571   0.37496   0.01776   0.00000  Uiso   1.00
O78    O     0.89226   0.37529   0.01775   0.00000  Uiso   1.00
H78    H     0.90923   0.37532   0.05223   0.00000  Uiso   1.00
H79    H     0.80046   0.37419   0.16119   0.00000  Uiso   1.00
O79    O     0.76604   0.37405   0.14557   0.00000  Uiso   1.00
O80    O     0.76606   0.37405   0.10627   0.00000  Uiso   1.00
H80    H     0.80050   0.37424   0.09069   0.00000  Uiso   1.00
Ni10   Ni    0.87399   0.37463   0.12595   0.00000  Uiso   1.00
C321   C     0.62576   0.85397   0.19963   0.00000  Uiso   1.00
C322   C     0.62585   0.86396   0.21672   0.00000  Uiso   1.00
C323   C     0.62584   0.88403   0.21671   0.00000  Uiso   1.00
C324   C     0.62573   0.89400   0.19962   0.00000  Uiso   1.00
C325   C     0.62564   0.88355   0.18299   0.00000  Uiso   1.00
C326   C     0.62566   0.86441   0.18299   0.00000  Uiso   1.00
C327   C     0.62556   0.85895   0.16440   0.00000  Uiso   1.00
N81    N     0.62548   0.87398   0.15257   0.00000  Uiso   1.00
C328   C     0.62553   0.88901   0.16440   0.00000  Uiso   1.00
N82    N     0.62543   0.90704   0.15896   0.00000  Uiso   1.00
C329   C     0.62526   0.91249   0.14094   0.00000  Uiso   1.00
N83    N     0.62518   0.90066   0.12590   0.00000  Uiso   1.00
C330   C     0.62498   0.91250   0.11086   0.00000  Uiso   1.00
C331   C     0.62494   0.93108   0.11631   0.00000  Uiso   1.00
C332   C     0.62512   0.93108   0.13550   0.00000  Uiso   1.00
N84    N     0.62519   0.87399   0.09922   0.00000  Uiso   1.00
C333   C     0.62498   0.88903   0.08738   0.00000  Uiso   1.00
N85    N     0.62488   0.90705   0.09283   0.00000  Uiso   1.00
C334   C     0.62494   0.88358   0.06880   0.00000  Uiso   1.00
C335   C     0.62512   0.86439   0.06880   0.00000  Uiso   1.00
C336   C     0.62527   0.85895   0.08739   0.00000  Uiso   1.00
C337   C     0.62515   0.94777   0.14591   0.00000  Uiso   1.00
C338   C     0.62499   0.96471   0.13568   0.00000  Uiso   1.00
C339   C     0.62481   0.96471   0.11614   0.00000  Uiso   1.00
C340   C     0.62478   0.94778   0.10590   0.00000  Uiso   1.00
C341   C     0.62515   0.85398   0.05210   0.00000  Uiso   1.00
C342   C     0.62498   0.86422   0.03517   0.00000  Uiso   1.00
C343   C     0.62479   0.88375   0.03517   0.00000  Uiso   1.00
C344   C     0.62476   0.89399   0.05210   0.00000  Uiso   1.00
N86    N     0.62548   0.84731   0.12589   0.00000  Uiso   1.00
C345   C     0.62554   0.83548   0.11086   0.00000  Uiso   1.00
N87    N     0.62544   0.84093   0.09284   0.00000  Uiso   1.00
C346   C     0.62567   0.81689   0.11632   0.00000  Uiso   1.00
C347   C     0.62567   0.81689   0.13546   0.00000  Uiso   1.00
C348   C     0.62557   0.83547   0.14093   0.00000  Uiso   1.00
C349   C     0.62577   0.80024   0.14590   0.00000  Uiso   1.00
C350   C     0.62586   0.78316   0.13591   0.00000  Uiso   1.00
C351   C     0.62586   0.78317   0.11583   0.00000  Uiso   1.00
C352   C     0.62576   0.80027   0.10586   0.00000  Uiso   1.00
N88    N     0.62560   0.84092   0.15895   0.00000  Uiso   1.00
H81    H     0.62577   0.83873   0.19942   0.00000  Uiso   1.00
O81    O     0.62593   0.85436   0.23385   0.00000  Uiso   1.00
O82    O     0.62592   0.89365   0.23382   0.00000  Uiso   1.00
H82    H     0.62572   0.90924   0.19939   0.00000  Uiso   1.00
H83    H     0.62529   0.94769   0.16115   0.00000  Uiso   1.00
O83    O     0.62501   0.98218   0.14419   0.00000  Uiso   1.00
O84    O     0.62468   0.98218   0.10764   0.00000  Uiso   1.00
H84    H     0.62464   0.94771   0.09067   0.00000  Uiso   1.00
H85    H     0.62529   0.83875   0.05218   0.00000  Uiso   1.00
O85    O     0.62499   0.85571   0.01770   0.00000  Uiso   1.00
O86    O     0.62464   0.89226   0.01770   0.00000  Uiso   1.00
H86    H     0.62462   0.90923   0.05217   0.00000  Uiso   1.00
H87    H     0.62576   0.80046   0.16113   0.00000  Uiso   1.00
O87    O     0.62592   0.76603   0.14550   0.00000  Uiso   1.00
O88    O     0.62594   0.76606   0.10621   0.00000  Uiso   1.00
H88    H     0.62575   0.80050   0.09063   0.00000  Uiso   1.00
Ni11   Ni    0.62533   0.87399   0.12589   0.00000  Uiso   1.00
C353   C     0.10597   0.62579   0.19964   0.00000  Uiso   1.00
C354   C     0.11594   0.62588   0.21674   0.00000  Uiso   1.00
C355   C     0.13601   0.62588   0.21675   0.00000  Uiso   1.00
C356   C     0.14600   0.62581   0.19966   0.00000  Uiso   1.00
C357   C     0.13557   0.62571   0.18302   0.00000  Uiso   1.00
C358   C     0.11642   0.62571   0.18301   0.00000  Uiso   1.00
C359   C     0.11097   0.62559   0.16443   0.00000  Uiso   1.00
N89    N     0.12600   0.62554   0.15259   0.00000  Uiso   1.00
C360   C     0.14103   0.62562   0.16443   0.00000  Uiso   1.00
N90    N     0.15906   0.62565   0.15898   0.00000  Uiso   1.00
C361   C     0.16451   0.62561   0.14096   0.00000  Uiso   1.00
N91    N     0.15267   0.62553   0.12592   0.00000  Uiso   1.00
C362   C     0.16451   0.62557   0.11089   0.00000  Uiso   1.00
C363   C     0.18310   0.62568   0.11635   0.00000  Uiso   1.00
C364   C     0.18310   0.62570   0.13550   0.00000  Uiso   1.00
N92    N     0.12600   0.62524   0.09924   0.00000  Uiso   1.00
C365   C     0.14105   0.62532   0.08741   0.00000  Uiso   1.00
N93    N     0.15907   0.62548   0.09287   0.00000  Uiso   1.00
C366   C     0.13560   0.62518   0.06883   0.00000  Uiso   1.00
C367   C     0.11642   0.62501   0.06883   0.00000  Uiso   1.00
C368   C     0.11096   0.62505   0.08741   0.00000  Uiso   1.00
C369   C     0.19974   0.62580   0.14594   0.00000  Uiso   1.00
C370   C     0.21683   0.62587   0.13595   0.00000  Uiso   1.00
C371   C     0.21682   0.62586   0.11587   0.00000  Uiso   1.00
C372   C     0.19973   0.62576   0.10590   0.00000  Uiso   1.00
C373   C     0.10601   0.62485   0.05213   0.00000  Uiso   1.00
C374   C     0.11625   0.62488   0.03519   0.00000  Uiso   1.00
C375   C     0.13579   0.62505   0.03520   0.00000  Uiso   1.00
C376   C     0.14602   0.62521   0.05213   0.00000  Uiso   1.00
N94    N     0.09932   0.62525   0.12592   0.00000  Uiso   1.00
C377   C     0.08749   0.62505   0.11088   0.00000  Uiso   1.00
N95    N     0.09294   0.62496   0.09286   0.00000  Uiso   1.00
C378   C     0.06891   0.62501   0.11633   0.00000  Uiso   1.00
C379   C     0.06891   0.62518   0.13552   0.00000  Uiso   1.00
C380   C     0.08749   0.62533   0.14096   0.00000  Uiso   1.00
C381   C     0.05221   0.62520   0.14593   0.00000  Uiso   1.00
C382   C     0.03527   0.62503   0.13570   0.00000  Uiso   1.00
C383   C     0.03527   0.62486   0.11616   0.00000  Uiso   1.00
C384   C     0.05221   0.62484   0.10592   0.00000  Uiso   1.00
N96    N     0.09294   0.62549   0.15898   0.00000  Uiso   1.00
H89    H     0.09074   0.62578   0.19941   0.00000  Uiso   1.00
O89    O     0.10632   0.62596   0.23385   0.00000  Uiso   1.00
O90    O     0.14561   0.62594   0.23387   0.00000  Uiso   1.00
H90    H     0.16124   0.62580   0.19944   0.00000  Uiso   1.00
H91    H     0.19952   0.62580   0.16117   0.00000  Uiso   1.00
O91    O     0.23395   0.62594   0.14554   0.00000  Uiso   1.00
O92    O     0.23393   0.62593   0.10625   0.00000  Uiso   1.00
H92    H     0.19950   0.62575   0.09067   0.00000  Uiso   1.00
H93    H     0.09078   0.62472   0.05220   0.00000  Uiso   1.00
O93    O     0.10775   0.62475   0.01773   0.00000  Uiso   1.00
O94    O     0.14430   0.62507   0.01773   0.00000  Uiso   1.00
H94    H     0.16126   0.62534   0.05221   0.00000  Uiso   1.00
H95    H     0.05229   0.62534   0.16117   0.00000  Uiso   1.00
O95    O     0.01781   0.62504   0.14420   0.00000  Uiso   1.00
O96    O     0.01781   0.62471   0.10766   0.00000  Uiso   1.00
H96    H     0.05228   0.62470   0.09069   0.00000  Uiso   1.00
Ni12   Ni    0.12600   0.62539   0.12592   0.00000  Uiso   1.00
C385   C     0.37425   0.80029   0.89392   0.00000  Uiso   1.00
C386   C     0.37415   0.78319   0.88394   0.00000  Uiso   1.00
C387   C     0.37414   0.78319   0.86387   0.00000  Uiso   1.00
C388   C     0.37421   0.80028   0.85388   0.00000  Uiso   1.00
C389   C     0.37431   0.81692   0.86432   0.00000  Uiso   1.00
C390   C     0.37433   0.81692   0.88347   0.00000  Uiso   1.00
C391   C     0.37444   0.83550   0.88893   0.00000  Uiso   1.00
N97    N     0.37448   0.84734   0.87390   0.00000  Uiso   1.00
C392   C     0.37440   0.83551   0.85886   0.00000  Uiso   1.00
N98    N     0.37436   0.84096   0.84084   0.00000  Uiso   1.00
C393   C     0.37440   0.85898   0.83539   0.00000  Uiso   1.00
N99    N     0.37448   0.87402   0.84723   0.00000  Uiso   1.00
C394   C     0.37444   0.88905   0.83539   0.00000  Uiso   1.00
C395   C     0.37432   0.88359   0.81681   0.00000  Uiso   1.00
C396   C     0.37430   0.86445   0.81680   0.00000  Uiso   1.00
N100   N     0.37477   0.90069   0.87390   0.00000  Uiso   1.00
C397   C     0.37470   0.91252   0.85886   0.00000  Uiso   1.00
N101   N     0.37453   0.90707   0.84084   0.00000  Uiso   1.00
C398   C     0.37484   0.93111   0.86430   0.00000  Uiso   1.00
C399   C     0.37502   0.93111   0.88349   0.00000  Uiso   1.00
C400   C     0.37496   0.91252   0.88894   0.00000  Uiso   1.00
C401   C     0.37420   0.85401   0.80016   0.00000  Uiso   1.00
C402   C     0.37413   0.86401   0.78307   0.00000  Uiso   1.00
C403   C     0.37414   0.88408   0.78308   0.00000  Uiso   1.00
C404   C     0.37424   0.89405   0.80018   0.00000  Uiso   1.00
C405   C     0.37519   0.94781   0.89390   0.00000  Uiso   1.00
C406   C     0.37517   0.96474   0.88366   0.00000  Uiso   1.00
C407   C     0.37500   0.96474   0.86413   0.00000  Uiso   1.00
C408   C     0.37483   0.94781   0.85389   0.00000  Uiso   1.00
N102   N     0.37477   0.87401   0.90058   0.00000  Uiso   1.00
C409   C     0.37495   0.88905   0.91241   0.00000  Uiso   1.00
N103   N     0.37505   0.90707   0.90696   0.00000  Uiso   1.00
C410   C     0.37499   0.88359   0.93099   0.00000  Uiso   1.00
C411   C     0.37482   0.86441   0.93099   0.00000  Uiso   1.00
C412   C     0.37469   0.85897   0.91240   0.00000  Uiso   1.00
C413   C     0.37480   0.85399   0.94769   0.00000  Uiso   1.00
C414   C     0.37495   0.86423   0.96462   0.00000  Uiso   1.00
C415   C     0.37512   0.88376   0.96463   0.00000  Uiso   1.00
C416   C     0.37514   0.89401   0.94769   0.00000  Uiso   1.00
N104   N     0.37453   0.84095   0.90695   0.00000  Uiso   1.00
H97    H     0.37427   0.80051   0.90915   0.00000  Uiso   1.00
O97    O     0.37408   0.76608   0.89356   0.00000  Uiso   1.00
O98    O     0.37407   0.76607   0.85427   0.00000  Uiso   1.00
H98    H     0.37421   0.80050   0.83865   0.00000  Uiso   1.00
H99    H     0.37420   0.83878   0.80037   0.00000  Uiso   1.00
O99    O     0.37406   0.85441   0.76595   0.00000  Uiso   1.00
O100   O     0.37407   0.89370   0.76598   0.00000  Uiso   1.00
H100   H     0.37425   0.90928   0.80041   0.00000  Uiso   1.00
H101   H     0.37532   0.94773   0.90913   0.00000  Uiso   1.00
O101   O     0.37532   0.98221   0.89217   0.00000  Uiso   1.00
O102   O     0.37499   0.98221   0.85562   0.00000  Uiso   1.00
H102   H     0.37469   0.94773   0.83866   0.00000  Uiso   1.00
H103   H     0.37467   0.83876   0.94761   0.00000  Uiso   1.00
O103   O     0.37494   0.85572   0.98209   0.00000  Uiso   1.00
O104   O     0.37525   0.89226   0.98209   0.00000  Uiso   1.00
H104   H     0.37527   0.90924   0.94762   0.00000  Uiso   1.00
Ni13   Ni    0.37463   0.87401   0.87390   0.00000  Uiso   1.00
C417   C     0.10602   0.37521   0.94773   0.00000  Uiso   1.00
C418   C     0.11627   0.37519   0.96466   0.00000  Uiso   1.00
C419   C     0.13580   0.37502   0.96466   0.00000  Uiso   1.00
C420   C     0.14604   0.37485   0.94773   0.00000  Uiso   1.00
C421   C     0.13562   0.37487   0.93103   0.00000  Uiso   1.00
C422   C     0.11644   0.37504   0.93103   0.00000  Uiso   1.00
C423   C     0.11099   0.37499   0.91245   0.00000  Uiso   1.00
N105   N     0.12603   0.37480   0.90061   0.00000  Uiso   1.00
C424   C     0.14107   0.37472   0.91244   0.00000  Uiso   1.00
N106   N     0.15909   0.37456   0.90699   0.00000  Uiso   1.00
C425   C     0.16454   0.37446   0.88897   0.00000  Uiso   1.00
N107   N     0.15270   0.37450   0.87394   0.00000  Uiso   1.00
C426   C     0.16454   0.37442   0.85890   0.00000  Uiso   1.00
C427   C     0.18313   0.37432   0.86436   0.00000  Uiso   1.00
C428   C     0.18312   0.37434   0.88351   0.00000  Uiso   1.00
N108   N     0.12603   0.37451   0.84726   0.00000  Uiso   1.00
C429   C     0.14107   0.37442   0.83543   0.00000  Uiso   1.00
N109   N     0.15909   0.37438   0.84088   0.00000  Uiso   1.00
C430   C     0.13561   0.37433   0.81684   0.00000  Uiso   1.00
C431   C     0.11646   0.37435   0.81684   0.00000  Uiso   1.00
C432   C     0.11100   0.37446   0.83543   0.00000  Uiso   1.00
C433   C     0.19975   0.37426   0.89396   0.00000  Uiso   1.00
C434   C     0.21685   0.37416   0.88399   0.00000  Uiso   1.00
C435   C     0.21686   0.37414   0.86392   0.00000  Uiso   1.00
C436   C     0.19977   0.37422   0.85393   0.00000  Uiso   1.00
C437   C     0.10601   0.37426   0.80021   0.00000  Uiso   1.00
C438   C     0.11598   0.37416   0.78312   0.00000  Uiso   1.00
C439   C     0.13605   0.37415   0.78311   0.00000  Uiso   1.00
C440   C     0.14604   0.37423   0.80019   0.00000  Uiso   1.00
N110   N     0.09935   0.37479   0.87394   0.00000  Uiso   1.00
C441   C     0.08752   0.37471   0.85889   0.00000  Uiso   1.00
N111   N     0.09298   0.37455   0.84087   0.00000  Uiso   1.00
C442   C     0.06894   0.37484   0.86434   0.00000  Uiso   1.00
C443   C     0.06893   0.37502   0.88352   0.00000  Uiso   1.00
C444   C     0.08752   0.37498   0.88898   0.00000  Uiso   1.00
C445   C     0.05223   0.37517   0.89394   0.00000  Uiso   1.00
C446   C     0.03530   0.37514   0.88369   0.00000  Uiso   1.00
C447   C     0.03531   0.37496   0.86416   0.00000  Uiso   1.00
C448   C     0.05224   0.37481   0.85392   0.00000  Uiso   1.00
N112   N     0.09296   0.37508   0.90700   0.00000  Uiso   1.00
H105   H     0.09079   0.37534   0.94766   0.00000  Uiso   1.00
O105   O     0.10776   0.37533   0.98213   0.00000  Uiso   1.00
O106   O     0.14431   0.37501   0.98213   0.00000  Uiso   1.00
H106   H     0.16127   0.37472   0.94765   0.00000  Uiso   1.00
H107   H     0.19952   0.37427   0.90920   0.00000  Uiso   1.00
O107   O     0.23395   0.37408   0.89361   0.00000  Uiso   1.00
O108   O     0.23398   0.37407   0.85432   0.00000  Uiso   1.00
H108   H     0.19955   0.37421   0.83869   0.00000  Uiso   1.00
H109   H     0.09077   0.37428   0.80045   0.00000  Uiso   1.00
O109   O     0.10636   0.37409   0.76601   0.00000  Uiso   1.00
O110   O     0.14565   0.37408   0.76598   0.00000  Uiso   1.00
H110   H     0.16128   0.37422   0.80041   0.00000  Uiso   1.00
H111   H     0.05231   0.37530   0.90917   0.00000  Uiso   1.00
O111   O     0.01783   0.37527   0.89220   0.00000  Uiso   1.00
O112   O     0.01784   0.37494   0.85565   0.00000  Uiso   1.00
H112   H     0.05232   0.37467   0.83869   0.00000  Uiso   1.00
Ni14   Ni    0.12603   0.37465   0.87394   0.00000  Uiso   1.00
C449   C     0.62483   0.05223   0.89388   0.00000  Uiso   1.00
C450   C     0.62486   0.03530   0.88364   0.00000  Uiso   1.00
C451   C     0.62503   0.03530   0.86410   0.00000  Uiso   1.00
C452   C     0.62519   0.05224   0.85387   0.00000  Uiso   1.00
C453   C     0.62517   0.06894   0.86429   0.00000  Uiso   1.00
C454   C     0.62500   0.06893   0.88347   0.00000  Uiso   1.00
C455   C     0.62505   0.08751   0.88893   0.00000  Uiso   1.00
N113   N     0.62524   0.09935   0.87389   0.00000  Uiso   1.00
C456   C     0.62531   0.08752   0.85884   0.00000  Uiso   1.00
N114   N     0.62547   0.09298   0.84082   0.00000  Uiso   1.00
C457   C     0.62557   0.11100   0.83538   0.00000  Uiso   1.00
N115   N     0.62553   0.12603   0.84722   0.00000  Uiso   1.00
C458   C     0.62562   0.14107   0.83538   0.00000  Uiso   1.00
C459   C     0.62571   0.13561   0.81679   0.00000  Uiso   1.00
C460   C     0.62568   0.11646   0.81679   0.00000  Uiso   1.00
N116   N     0.62554   0.15270   0.87389   0.00000  Uiso   1.00
C461   C     0.62563   0.16454   0.85886   0.00000  Uiso   1.00
N117   N     0.62566   0.15909   0.84083   0.00000  Uiso   1.00
C462   C     0.62573   0.18313   0.86432   0.00000  Uiso   1.00
C463   C     0.62570   0.18312   0.88347   0.00000  Uiso   1.00
C464   C     0.62558   0.16453   0.88892   0.00000  Uiso   1.00
C465   C     0.62576   0.10602   0.80016   0.00000  Uiso   1.00
C466   C     0.62586   0.11599   0.78307   0.00000  Uiso   1.00
C467   C     0.62588   0.13607   0.78306   0.00000  Uiso   1.00
C468   C     0.62581   0.14605   0.80015   0.00000  Uiso   1.00
C469   C     0.62578   0.19975   0.89392   0.00000  Uiso   1.00
C470   C     0.62589   0.21684   0.88395   0.00000  Uiso   1.00
C471   C     0.62590   0.21686   0.86387   0.00000  Uiso   1.00
C472   C     0.62583   0.19977   0.85388   0.00000  Uiso   1.00
N118   N     0.62523   0.12602   0.90057   0.00000  Uiso   1.00
C473   C     0.62531   0.14107   0.91240   0.00000  Uiso   1.00
N119   N     0.62548   0.15909   0.90695   0.00000  Uiso   1.00
C474   C     0.62516   0.13562   0.93098   0.00000  Uiso   1.00
C475   C     0.62499   0.11643   0.93098   0.00000  Uiso   1.00
C476   C     0.62504   0.11098   0.91240   0.00000  Uiso   1.00
C477   C     0.62482   0.10602   0.94768   0.00000  Uiso   1.00
C478   C     0.62484   0.11626   0.96461   0.00000  Uiso   1.00
C479   C     0.62501   0.13579   0.96461   0.00000  Uiso   1.00
C480   C     0.62517   0.14603   0.94768   0.00000  Uiso   1.00
N120   N     0.62495   0.09296   0.90695   0.00000  Uiso   1.00
H113   H     0.62470   0.05230   0.90912   0.00000  Uiso   1.00
O113   O     0.62472   0.01783   0.89214   0.00000  Uiso   1.00
O114   O     0.62505   0.01784   0.85560   0.00000  Uiso   1.00
H114   H     0.62533   0.05232   0.83864   0.00000  Uiso   1.00
H115   H     0.62573   0.09078   0.80039   0.00000  Uiso   1.00
O115   O     0.62592   0.10638   0.76596   0.00000  Uiso   1.00
O116   O     0.62595   0.14567   0.76594   0.00000  Uiso   1.00
H116   H     0.62583   0.16128   0.80037   0.00000  Uiso   1.00
H117   H     0.62576   0.19952   0.90915   0.00000  Uiso   1.00
O117   O     0.62596   0.23395   0.89357   0.00000  Uiso   1.00
O118   O     0.62597   0.23398   0.85427   0.00000  Uiso   1.00
H118   H     0.62584   0.19955   0.83865   0.00000  Uiso   1.00
H119   H     0.62469   0.09079   0.94761   0.00000  Uiso   1.00
O119   O     0.62469   0.10775   0.98208   0.00000  Uiso   1.00
O120   O     0.62502   0.14430   0.98208   0.00000  Uiso   1.00
H120   H     0.62531   0.16127   0.94760   0.00000  Uiso   1.00
Ni15   Ni    0.62538   0.12602   0.87389   0.00000  Uiso   1.00
C481   C     0.85398   0.62521   0.94769   0.00000  Uiso   1.00
C482   C     0.86422   0.62505   0.96462   0.00000  Uiso   1.00
C483   C     0.88376   0.62488   0.96462   0.00000  Uiso   1.00
C484   C     0.89400   0.62486   0.94769   0.00000  Uiso   1.00
C485   C     0.88359   0.62503   0.93099   0.00000  Uiso   1.00
C486   C     0.86440   0.62520   0.93099   0.00000  Uiso   1.00
C487   C     0.85896   0.62534   0.91241   0.00000  Uiso   1.00
N121   N     0.87400   0.62526   0.90058   0.00000  Uiso   1.00
C488   C     0.88904   0.62507   0.91241   0.00000  Uiso   1.00
N122   N     0.90706   0.62497   0.90696   0.00000  Uiso   1.00
C489   C     0.91251   0.62506   0.88894   0.00000  Uiso   1.00
N123   N     0.90068   0.62526   0.87390   0.00000  Uiso   1.00
C490   C     0.91251   0.62533   0.85885   0.00000  Uiso   1.00
C491   C     0.93109   0.62519   0.86430   0.00000  Uiso   1.00
C492   C     0.93110   0.62502   0.88348   0.00000  Uiso   1.00
N124   N     0.87400   0.62555   0.84722   0.00000  Uiso   1.00
C493   C     0.88903   0.62560   0.83539   0.00000  Uiso   1.00
N125   N     0.90706   0.62550   0.84083   0.00000  Uiso   1.00
C494   C     0.88358   0.62572   0.81680   0.00000  Uiso   1.00
C495   C     0.86443   0.62573   0.81680   0.00000  Uiso   1.00
C496   C     0.85897   0.62563   0.83539   0.00000  Uiso   1.00
C497   C     0.94779   0.62485   0.89390   0.00000  Uiso   1.00
C498   C     0.96473   0.62487   0.88366   0.00000  Uiso   1.00
C499   C     0.96473   0.62504   0.86412   0.00000  Uiso   1.00
C500   C     0.94779   0.62521   0.85388   0.00000  Uiso   1.00
C501   C     0.85399   0.62583   0.80016   0.00000  Uiso   1.00
C502   C     0.86398   0.62590   0.78307   0.00000  Uiso   1.00
C503   C     0.88406   0.62590   0.78308   0.00000  Uiso   1.00
C504   C     0.89403   0.62580   0.80017   0.00000  Uiso   1.00
N126   N     0.84733   0.62555   0.87390   0.00000  Uiso   1.00
C505   C     0.83549   0.62563   0.85886   0.00000  Uiso   1.00
N127   N     0.84094   0.62566   0.84084   0.00000  Uiso   1.00
C506   C     0.81690   0.62572   0.86433   0.00000  Uiso   1.00
C507   C     0.81691   0.62570   0.88347   0.00000  Uiso   1.00
C508   C     0.83549   0.62559   0.88893   0.00000  Uiso   1.00
C509   C     0.80028   0.62578   0.89393   0.00000  Uiso   1.00
C510   C     0.78318   0.62588   0.88396   0.00000  Uiso   1.00
C511   C     0.78317   0.62589   0.86388   0.00000  Uiso   1.00
C512   C     0.80026   0.62581   0.85389   0.00000  Uiso   1.00
N128   N     0.84094   0.62550   0.90695   0.00000  Uiso   1.00
H121   H     0.83875   0.62535   0.94761   0.00000  Uiso   1.00
O121   O     0.85571   0.62506   0.98209   0.00000  Uiso   1.00
O122   O     0.89226   0.62474   0.98209   0.00000  Uiso   1.00
H122   H     0.90923   0.62473   0.94762   0.00000  Uiso   1.00
H123   H     0.94772   0.62472   0.90913   0.00000  Uiso   1.00
O123   O     0.98219   0.62473   0.89216   0.00000  Uiso   1.00
O124   O     0.98220   0.62505   0.85561   0.00000  Uiso   1.00
H124   H     0.94772   0.62535   0.83865   0.00000  Uiso   1.00
H125   H     0.83876   0.62583   0.80038   0.00000  Uiso   1.00
O125   O     0.85439   0.62597   0.76595   0.00000  Uiso   1.00
O126   O     0.89368   0.62598   0.76597   0.00000  Uiso   1.00
H126   H     0.90926   0.62579   0.80040   0.00000  Uiso   1.00
H127   H     0.80051   0.62577   0.90916   0.00000  Uiso   1.00
O127   O     0.76608   0.62595   0.89358   0.00000  Uiso   1.00
O128   O     0.76605   0.62595   0.85428   0.00000  Uiso   1.00
H128   H     0.80048   0.62582   0.83866   0.00000  Uiso   1.00
Ni16   Ni    0.87400   0.62540   0.87390   0.00000  Uiso   1.00
C513   C     0.10597   0.37425   0.19968   0.00000  Uiso   1.00
C514   C     0.11594   0.37415   0.21677   0.00000  Uiso   1.00
C515   C     0.13602   0.37414   0.21678   0.00000  Uiso   1.00
C516   C     0.14601   0.37422   0.19970   0.00000  Uiso   1.00
C517   C     0.13557   0.37432   0.18305   0.00000  Uiso   1.00
C518   C     0.11643   0.37434   0.18305   0.00000  Uiso   1.00
C519   C     0.11097   0.37445   0.16446   0.00000  Uiso   1.00
N129   N     0.12601   0.37450   0.15263   0.00000  Uiso   1.00
C520   C     0.14104   0.37441   0.16446   0.00000  Uiso   1.00
N130   N     0.15906   0.37437   0.15902   0.00000  Uiso   1.00
C521   C     0.16451   0.37441   0.14099   0.00000  Uiso   1.00
N131   N     0.15268   0.37450   0.12596   0.00000  Uiso   1.00
C522   C     0.16452   0.37445   0.11093   0.00000  Uiso   1.00
C523   C     0.18310   0.37432   0.11638   0.00000  Uiso   1.00
C524   C     0.18310   0.37431   0.13553   0.00000  Uiso   1.00
N132   N     0.12601   0.37480   0.09928   0.00000  Uiso   1.00
C525   C     0.14105   0.37472   0.08745   0.00000  Uiso   1.00
N133   N     0.15907   0.37455   0.09290   0.00000  Uiso   1.00
C526   C     0.13561   0.37487   0.06886   0.00000  Uiso   1.00
C527   C     0.11642   0.37505   0.06886   0.00000  Uiso   1.00
C528   C     0.11097   0.37500   0.08744   0.00000  Uiso   1.00
C529   C     0.19974   0.37420   0.14597   0.00000  Uiso   1.00
C530   C     0.21683   0.37412   0.13598   0.00000  Uiso   1.00
C531   C     0.21683   0.37413   0.11590   0.00000  Uiso   1.00
C532   C     0.19973   0.37424   0.10593   0.00000  Uiso   1.00
C533   C     0.10601   0.37521   0.05216   0.00000  Uiso   1.00
C534   C     0.11626   0.37519   0.03523   0.00000  Uiso   1.00
C535   C     0.13580   0.37502   0.03523   0.00000  Uiso   1.00
C536   C     0.14603   0.37485   0.05217   0.00000  Uiso   1.00
N134   N     0.09933   0.37480   0.12595   0.00000  Uiso   1.00
C537   C     0.08750   0.37499   0.11091   0.00000  Uiso   1.00
N135   N     0.09295   0.37509   0.09289   0.00000  Uiso   1.00
C538   C     0.06891   0.37504   0.11636   0.00000  Uiso   1.00
C539   C     0.06891   0.37486   0.13555   0.00000  Uiso   1.00
C540   C     0.08750   0.37472   0.14100   0.00000  Uiso   1.00
C541   C     0.05222   0.37484   0.14597   0.00000  Uiso   1.00
C542   C     0.03528   0.37500   0.13573   0.00000  Uiso   1.00
C543   C     0.03528   0.37517   0.11619   0.00000  Uiso   1.00
C544   C     0.05221   0.37520   0.10595   0.00000  Uiso   1.00
N136   N     0.09295   0.37455   0.15902   0.00000  Uiso   1.00
H129   H     0.09074   0.37427   0.19945   0.00000  Uiso   1.00
O129   O     0.10632   0.37407   0.23388   0.00000  Uiso   1.00
O130   O     0.14561   0.37407   0.23391   0.00000  Uiso   1.00
H130   H     0.16124   0.37421   0.19948   0.00000  Uiso   1.00
H131   H     0.19953   0.37419   0.16120   0.00000  Uiso   1.00
O131   O     0.23396   0.37405   0.14558   0.00000  Uiso   1.00
O132   O     0.23393   0.37406   0.10628   0.00000  Uiso   1.00
H132   H     0.19950   0.37426   0.09070   0.00000  Uiso   1.00
H133   H     0.09078   0.37535   0.05223   0.00000  Uiso   1.00
O133   O     0.10776   0.37534   0.01776   0.00000  Uiso   1.00
O134   O     0.14431   0.37501   0.01776   0.00000  Uiso   1.00
H134   H     0.16126   0.37471   0.05225   0.00000  Uiso   1.00
H135   H     0.05229   0.37470   0.16120   0.00000  Uiso   1.00
O135   O     0.01781   0.37498   0.14424   0.00000  Uiso   1.00
O136   O     0.01781   0.37531   0.10769   0.00000  Uiso   1.00
H136   H     0.05229   0.37533   0.09072   0.00000  Uiso   1.00
Ni17   Ni    0.12600   0.37465   0.12595   0.00000  Uiso   1.00
C545   C     0.10602   0.62487   0.94770   0.00000  Uiso   1.00
C546   C     0.11626   0.62489   0.96463   0.00000  Uiso   1.00
C547   C     0.13579   0.62506   0.96463   0.00000  Uiso   1.00
C548   C     0.14603   0.62522   0.94769   0.00000  Uiso   1.00
C549   C     0.13561   0.62520   0.93099   0.00000  Uiso   1.00
C550   C     0.11643   0.62503   0.93100   0.00000  Uiso   1.00
C551   C     0.11098   0.62507   0.91241   0.00000  Uiso   1.00
N137   N     0.12602   0.62526   0.90058   0.00000  Uiso   1.00
C552   C     0.14106   0.62534   0.91241   0.00000  Uiso   1.00
N138   N     0.15908   0.62549   0.90696   0.00000  Uiso   1.00
C553   C     0.16453   0.62559   0.88893   0.00000  Uiso   1.00
N139   N     0.15269   0.62554   0.87390   0.00000  Uiso   1.00
C554   C     0.16453   0.62562   0.85887   0.00000  Uiso   1.00
C555   C     0.18312   0.62571   0.86433   0.00000  Uiso   1.00
C556   C     0.18311   0.62570   0.88347   0.00000  Uiso   1.00
N140   N     0.12602   0.62554   0.84723   0.00000  Uiso   1.00
C557   C     0.14106   0.62563   0.83539   0.00000  Uiso   1.00
N141   N     0.15908   0.62566   0.84084   0.00000  Uiso   1.00
C558   C     0.13560   0.62572   0.81680   0.00000  Uiso   1.00
C559   C     0.11645   0.62571   0.81681   0.00000  Uiso   1.00
C560   C     0.11099   0.62559   0.83539   0.00000  Uiso   1.00
C561   C     0.19974   0.62578   0.89393   0.00000  Uiso   1.00
C562   C     0.21684   0.62588   0.88395   0.00000  Uiso   1.00
C563   C     0.21685   0.62589   0.86388   0.00000  Uiso   1.00
C564   C     0.19976   0.62581   0.85389   0.00000  Uiso   1.00
C565   C     0.10600   0.62580   0.80018   0.00000  Uiso   1.00
C566   C     0.11597   0.62589   0.78308   0.00000  Uiso   1.00
C567   C     0.13604   0.62590   0.78307   0.00000  Uiso   1.00
C568   C     0.14603   0.62582   0.80016   0.00000  Uiso   1.00
N142   N     0.09934   0.62526   0.87390   0.00000  Uiso   1.00
C569   C     0.08751   0.62533   0.85886   0.00000  Uiso   1.00
N143   N     0.09297   0.62550   0.84084   0.00000  Uiso   1.00
C570   C     0.06893   0.62519   0.86430   0.00000  Uiso   1.00
C571   C     0.06892   0.62502   0.88349   0.00000  Uiso   1.00
C572   C     0.08751   0.62506   0.88894   0.00000  Uiso   1.00
C573   C     0.05222   0.62485   0.89390   0.00000  Uiso   1.00
C574   C     0.03529   0.62487   0.88366   0.00000  Uiso   1.00
C575   C     0.03529   0.62504   0.86412   0.00000  Uiso   1.00
C576   C     0.05223   0.62520   0.85389   0.00000  Uiso   1.00
N144   N     0.09295   0.62497   0.90696   0.00000  Uiso   1.00
H137   H     0.09078   0.62474   0.94762   0.00000  Uiso   1.00
O137   O     0.10775   0.62476   0.98210   0.00000  Uiso   1.00
O138   O     0.14430   0.62508   0.98209   0.00000  Uiso   1.00
H138   H     0.16126   0.62536   0.94761   0.00000  Uiso   1.00
H139   H     0.19951   0.62576   0.90916   0.00000  Uiso   1.00
O139   O     0.23394   0.62595   0.89358   0.00000  Uiso   1.00
O140   O     0.23397   0.62596   0.85428   0.00000  Uiso   1.00
H140   H     0.19954   0.62582   0.83866   0.00000  Uiso   1.00
H141   H     0.09076   0.62578   0.80041   0.00000  Uiso   1.00
O141   O     0.10635   0.62597   0.76598   0.00000  Uiso   1.00
O142   O     0.14564   0.62597   0.76595   0.00000  Uiso   1.00
H142   H     0.16127   0.62582   0.80038   0.00000  Uiso   1.00
H143   H     0.05230   0.62472   0.90913   0.00000  Uiso   1.00
O143   O     0.01782   0.62472   0.89216   0.00000  Uiso   1.00
O144   O     0.01783   0.62505   0.85561   0.00000  Uiso   1.00
H144   H     0.05231   0.62534   0.83865   0.00000  Uiso   1.00
Ni18   Ni    0.12602   0.62540   0.87390   0.00000  Uiso   1.00
C577   C     0.37522   0.05224   0.89391   0.00000  Uiso   1.00
C578   C     0.37520   0.03530   0.88366   0.00000  Uiso   1.00
C579   C     0.37502   0.03531   0.86413   0.00000  Uiso   1.00
C580   C     0.37485   0.05224   0.85389   0.00000  Uiso   1.00
C581   C     0.37487   0.06894   0.86431   0.00000  Uiso   1.00
C582   C     0.37506   0.06894   0.88350   0.00000  Uiso   1.00
C583   C     0.37501   0.08752   0.88895   0.00000  Uiso   1.00
N145   N     0.37481   0.09935   0.87391   0.00000  Uiso   1.00
C584   C     0.37473   0.08753   0.85886   0.00000  Uiso   1.00
N146   N     0.37455   0.09298   0.84084   0.00000  Uiso   1.00
C585   C     0.37445   0.11101   0.83540   0.00000  Uiso   1.00
N147   N     0.37450   0.12604   0.84724   0.00000  Uiso   1.00
C586   C     0.37441   0.14107   0.83540   0.00000  Uiso   1.00
C587   C     0.37431   0.13561   0.81681   0.00000  Uiso   1.00
C588   C     0.37433   0.11647   0.81682   0.00000  Uiso   1.00
N148   N     0.37451   0.15270   0.87391   0.00000  Uiso   1.00
C589   C     0.37442   0.16454   0.85888   0.00000  Uiso   1.00
N149   N     0.37438   0.15910   0.84085   0.00000  Uiso   1.00
C590   C     0.37433   0.18313   0.86434   0.00000  Uiso   1.00
C591   C     0.37435   0.18312   0.88348   0.00000  Uiso   1.00
C592   C     0.37447   0.16454   0.88894   0.00000  Uiso   1.00
C593   C     0.37424   0.10602   0.80018   0.00000  Uiso   1.00
C594   C     0.37414   0.11599   0.78309   0.00000  Uiso   1.00
C595   C     0.37413   0.13607   0.78308   0.00000  Uiso   1.00
C596   C     0.37421   0.14605   0.80017   0.00000  Uiso   1.00
C597   C     0.37428   0.19975   0.89394   0.00000  Uiso   1.00
C598   C     0.37417   0.21685   0.88396   0.00000  Uiso   1.00
C599   C     0.37416   0.21686   0.86389   0.00000  Uiso   1.00
C600   C     0.37423   0.19977   0.85390   0.00000  Uiso   1.00
N150   N     0.37481   0.12603   0.90059   0.00000  Uiso   1.00
C601   C     0.37474   0.14107   0.91242   0.00000  Uiso   1.00
N151   N     0.37457   0.15909   0.90697   0.00000  Uiso   1.00
C602   C     0.37488   0.13562   0.93100   0.00000  Uiso   1.00
C603   C     0.37506   0.11644   0.93100   0.00000  Uiso   1.00
C604   C     0.37501   0.11099   0.91242   0.00000  Uiso   1.00
C605   C     0.37523   0.10603   0.94770   0.00000  Uiso   1.00
C606   C     0.37520   0.11627   0.96464   0.00000  Uiso   1.00
C607   C     0.37502   0.13580   0.96464   0.00000  Uiso   1.00
C608   C     0.37486   0.14604   0.94770   0.00000  Uiso   1.00
N152   N     0.37511   0.09297   0.90697   0.00000  Uiso   1.00
H145   H     0.37536   0.05231   0.90914   0.00000  Uiso   1.00
O145   O     0.37534   0.01784   0.89217   0.00000  Uiso   1.00
O146   O     0.37500   0.01784   0.85562   0.00000  Uiso   1.00
H146   H     0.37471   0.05232   0.83866   0.00000  Uiso   1.00
H147   H     0.37426   0.09078   0.80041   0.00000  Uiso   1.00
O147   O     0.37407   0.10637   0.76598   0.00000  Uiso   1.00
O148   O     0.37406   0.14567   0.76596   0.00000  Uiso   1.00
H148   H     0.37420   0.16129   0.80039   0.00000  Uiso   1.00
H149   H     0.37430   0.19952   0.90917   0.00000  Uiso   1.00
O149   O     0.37410   0.23396   0.89358   0.00000  Uiso   1.00
O150   O     0.37408   0.23398   0.85429   0.00000  Uiso   1.00
H150   H     0.37422   0.19955   0.83867   0.00000  Uiso   1.00
H151   H     0.37536   0.09079   0.94763   0.00000  Uiso   1.00
O151   O     0.37534   0.10776   0.98210   0.00000  Uiso   1.00
O152   O     0.37501   0.14431   0.98210   0.00000  Uiso   1.00
H152   H     0.37472   0.16127   0.94762   0.00000  Uiso   1.00
Ni19   Ni    0.37466   0.12603   0.87391   0.00000  Uiso   1.00
C609   C     0.85399   0.37481   0.94772   0.00000  Uiso   1.00
C610   C     0.86423   0.37497   0.96466   0.00000  Uiso   1.00
C611   C     0.88376   0.37515   0.96466   0.00000  Uiso   1.00
C612   C     0.89401   0.37517   0.94772   0.00000  Uiso   1.00
C613   C     0.88360   0.37500   0.93102   0.00000  Uiso   1.00
C614   C     0.86441   0.37483   0.93102   0.00000  Uiso   1.00
C615   C     0.85897   0.37468   0.91244   0.00000  Uiso   1.00
N153   N     0.87401   0.37476   0.90061   0.00000  Uiso   1.00
C616   C     0.88905   0.37496   0.91244   0.00000  Uiso   1.00
N154   N     0.90707   0.37505   0.90699   0.00000  Uiso   1.00
C617   C     0.91252   0.37495   0.88897   0.00000  Uiso   1.00
N155   N     0.90069   0.37476   0.87393   0.00000  Uiso   1.00
C618   C     0.91252   0.37468   0.85889   0.00000  Uiso   1.00
C619   C     0.93110   0.37482   0.86433   0.00000  Uiso   1.00
C620   C     0.93111   0.37499   0.88352   0.00000  Uiso   1.00
N156   N     0.87401   0.37448   0.84726   0.00000  Uiso   1.00
C621   C     0.88904   0.37443   0.83542   0.00000  Uiso   1.00
N157   N     0.90707   0.37452   0.84087   0.00000  Uiso   1.00
C622   C     0.88359   0.37432   0.81684   0.00000  Uiso   1.00
C623   C     0.86444   0.37431   0.81683   0.00000  Uiso   1.00
C624   C     0.85898   0.37440   0.83542   0.00000  Uiso   1.00
C625   C     0.94780   0.37515   0.89393   0.00000  Uiso   1.00
C626   C     0.96474   0.37512   0.88369   0.00000  Uiso   1.00
C627   C     0.96474   0.37495   0.86415   0.00000  Uiso   1.00
C628   C     0.94780   0.37479   0.85391   0.00000  Uiso   1.00
C629   C     0.85400   0.37422   0.80019   0.00000  Uiso   1.00
C630   C     0.86399   0.37415   0.78310   0.00000  Uiso   1.00
C631   C     0.88407   0.37415   0.78311   0.00000  Uiso   1.00
C632   C     0.89404   0.37424   0.80020   0.00000  Uiso   1.00
N158   N     0.84734   0.37447   0.87393   0.00000  Uiso   1.00
C633   C     0.83550   0.37439   0.85890   0.00000  Uiso   1.00
N159   N     0.84095   0.37436   0.84087   0.00000  Uiso   1.00
C634   C     0.81691   0.37429   0.86436   0.00000  Uiso   1.00
C635   C     0.81692   0.37430   0.88350   0.00000  Uiso   1.00
C636   C     0.83550   0.37442   0.88896   0.00000  Uiso   1.00
C637   C     0.80029   0.37422   0.89396   0.00000  Uiso   1.00
C638   C     0.78319   0.37412   0.88398   0.00000  Uiso   1.00
C639   C     0.78318   0.37412   0.86391   0.00000  Uiso   1.00
C640   C     0.80027   0.37420   0.85392   0.00000  Uiso   1.00
N160   N     0.84095   0.37451   0.90699   0.00000  Uiso   1.00
H153   H     0.83876   0.37466   0.94764   0.00000  Uiso   1.00
O153   O     0.85572   0.37496   0.98212   0.00000  Uiso   1.00
O154   O     0.89227   0.37529   0.98213   0.00000  Uiso   1.00
H154   H     0.90924   0.37531   0.94765   0.00000  Uiso   1.00
H155   H     0.94773   0.37528   0.90916   0.00000  Uiso   1.00
O155   O     0.98220   0.37526   0.89219   0.00000  Uiso   1.00
O156   O     0.98220   0.37493   0.85565   0.00000  Uiso   1.00
H156   H     0.94773   0.37466   0.83868   0.00000  Uiso   1.00
H157   H     0.83877   0.37422   0.80041   0.00000  Uiso   1.00
O157   O     0.85439   0.37408   0.76598   0.00000  Uiso   1.00
O158   O     0.89369   0.37408   0.76600   0.00000  Uiso   1.00
H158   H     0.90927   0.37425   0.80043   0.00000  Uiso   1.00
H159   H     0.80052   0.37423   0.90919   0.00000  Uiso   1.00
O159   O     0.76609   0.37405   0.89360   0.00000  Uiso   1.00
O160   O     0.76606   0.37406   0.85431   0.00000  Uiso   1.00
H160   H     0.80049   0.37419   0.83869   0.00000  Uiso   1.00
Ni20   Ni    0.87401   0.37462   0.87393   0.00000  Uiso   1.00
C641   C     0.62578   0.80028   0.89390   0.00000  Uiso   1.00
C642   C     0.62588   0.78319   0.88392   0.00000  Uiso   1.00
C643   C     0.62589   0.78318   0.86385   0.00000  Uiso   1.00
C644   C     0.62581   0.80027   0.85386   0.00000  Uiso   1.00
C645   C     0.62571   0.81691   0.86430   0.00000  Uiso   1.00
C646   C     0.62570   0.81691   0.88345   0.00000  Uiso   1.00
C647   C     0.62558   0.83550   0.88890   0.00000  Uiso   1.00
N161   N     0.62553   0.84734   0.87387   0.00000  Uiso   1.00
C648   C     0.62561   0.83550   0.85884   0.00000  Uiso   1.00
N162   N     0.62564   0.84095   0.84081   0.00000  Uiso   1.00
C649   C     0.62561   0.85898   0.83537   0.00000  Uiso   1.00
N163   N     0.62552   0.87401   0.84720   0.00000  Uiso   1.00
C650   C     0.62558   0.88904   0.83537   0.00000  Uiso   1.00
C651   C     0.62569   0.88359   0.81678   0.00000  Uiso   1.00
C652   C     0.62570   0.86444   0.81678   0.00000  Uiso   1.00
N164   N     0.62523   0.90069   0.87388   0.00000  Uiso   1.00
C653   C     0.62531   0.91252   0.85884   0.00000  Uiso   1.00
N165   N     0.62548   0.90707   0.84081   0.00000  Uiso   1.00
C654   C     0.62517   0.93110   0.86428   0.00000  Uiso   1.00
C655   C     0.62499   0.93110   0.88347   0.00000  Uiso   1.00
C656   C     0.62503   0.91252   0.88892   0.00000  Uiso   1.00
C657   C     0.62580   0.85401   0.80013   0.00000  Uiso   1.00
C658   C     0.62588   0.86400   0.78305   0.00000  Uiso   1.00
C659   C     0.62587   0.88408   0.78306   0.00000  Uiso   1.00
C660   C     0.62578   0.89404   0.80016   0.00000  Uiso   1.00
C661   C     0.62482   0.94780   0.89388   0.00000  Uiso   1.00
C662   C     0.62485   0.96473   0.88364   0.00000  Uiso   1.00
C663   C     0.62503   0.96474   0.86410   0.00000  Uiso   1.00
C664   C     0.62519   0.94780   0.85386   0.00000  Uiso   1.00
N166   N     0.62522   0.87401   0.90055   0.00000  Uiso   1.00
C665   C     0.62501   0.88904   0.91239   0.00000  Uiso   1.00
N167   N     0.62492   0.90707   0.90694   0.00000  Uiso   1.00
C666   C     0.62496   0.88359   0.93097   0.00000  Uiso   1.00
C667   C     0.62515   0.86440   0.93097   0.00000  Uiso   1.00
C668   C     0.62530   0.85896   0.91238   0.00000  Uiso   1.00
C669   C     0.62516   0.85398   0.94767   0.00000  Uiso   1.00
C670   C     0.62499   0.86422   0.96460   0.00000  Uiso   1.00
C671   C     0.62480   0.88376   0.96460   0.00000  Uiso   1.00
C672   C     0.62478   0.89400   0.94767   0.00000  Uiso   1.00
N168   N     0.62547   0.84094   0.90693   0.00000  Uiso   1.00
H161   H     0.62576   0.80051   0.90913   0.00000  Uiso   1.00
O161   O     0.62595   0.76608   0.89354   0.00000  Uiso   1.00
O162   O     0.62595   0.76606   0.85425   0.00000  Uiso   1.00
H162   H     0.62581   0.80049   0.83863   0.00000  Uiso   1.00
H163   H     0.62580   0.83878   0.80035   0.00000  Uiso   1.00
O163   O     0.62594   0.85441   0.76592   0.00000  Uiso   1.00
O164   O     0.62595   0.89370   0.76595   0.00000  Uiso   1.00
H164   H     0.62577   0.90928   0.80039   0.00000  Uiso   1.00
H165   H     0.62468   0.94773   0.90911   0.00000  Uiso   1.00
O165   O     0.62471   0.98220   0.89214   0.00000  Uiso   1.00
O166   O     0.62505   0.98220   0.85560   0.00000  Uiso   1.00
H166   H     0.62534   0.94772   0.83863   0.00000  Uiso   1.00
H167   H     0.62531   0.83875   0.94759   0.00000  Uiso   1.00
O167   O     0.62500   0.85571   0.98207   0.00000  Uiso   1.00
O168   O     0.62465   0.89226   0.98207   0.00000  Uiso   1.00
H168   H     0.62464   0.90923   0.94760   0.00000  Uiso   1.00
Ni21   Ni    0.62538   0.87401   0.87388   0.00000  Uiso   1.00
C673   C     0.85396   0.62582   0.19965   0.00000  Uiso   1.00
C674   C     0.86395   0.62589   0.21674   0.00000  Uiso   1.00
C675   C     0.88402   0.62587   0.21673   0.00000  Uiso   1.00
C676   C     0.89400   0.62577   0.19964   0.00000  Uiso   1.00
C677   C     0.88355   0.62569   0.18301   0.00000  Uiso   1.00
C678   C     0.86440   0.62571   0.18301   0.00000  Uiso   1.00
C679   C     0.85894   0.62562   0.16442   0.00000  Uiso   1.00
N169   N     0.87398   0.62553   0.15259   0.00000  Uiso   1.00
C680   C     0.88901   0.62557   0.16442   0.00000  Uiso   1.00
N170   N     0.90703   0.62547   0.15898   0.00000  Uiso   1.00
C681   C     0.91249   0.62530   0.14096   0.00000  Uiso   1.00
N171   N     0.90066   0.62523   0.12592   0.00000  Uiso   1.00
C682   C     0.91249   0.62504   0.11088   0.00000  Uiso   1.00
C683   C     0.93108   0.62499   0.11633   0.00000  Uiso   1.00
C684   C     0.93107   0.62516   0.13552   0.00000  Uiso   1.00
N172   N     0.87399   0.62523   0.09924   0.00000  Uiso   1.00
C685   C     0.88903   0.62504   0.08741   0.00000  Uiso   1.00
N173   N     0.90705   0.62495   0.09285   0.00000  Uiso   1.00
C686   C     0.88358   0.62500   0.06882   0.00000  Uiso   1.00
C687   C     0.86439   0.62517   0.06882   0.00000  Uiso   1.00
C688   C     0.85894   0.62531   0.08741   0.00000  Uiso   1.00
C689   C     0.94777   0.62518   0.14593   0.00000  Uiso   1.00
C690   C     0.96471   0.62502   0.13570   0.00000  Uiso   1.00
C691   C     0.96471   0.62484   0.11616   0.00000  Uiso   1.00
C692   C     0.94778   0.62482   0.10592   0.00000  Uiso   1.00
C693   C     0.85397   0.62519   0.05212   0.00000  Uiso   1.00
C694   C     0.86421   0.62504   0.03519   0.00000  Uiso   1.00
C695   C     0.88375   0.62486   0.03519   0.00000  Uiso   1.00
C696   C     0.89399   0.62484   0.05212   0.00000  Uiso   1.00
N174   N     0.84731   0.62552   0.12592   0.00000  Uiso   1.00
C697   C     0.83548   0.62556   0.11088   0.00000  Uiso   1.00
N175   N     0.84092   0.62546   0.09286   0.00000  Uiso   1.00
C698   C     0.81689   0.62567   0.11634   0.00000  Uiso   1.00
C699   C     0.81688   0.62569   0.13549   0.00000  Uiso   1.00
C700   C     0.83547   0.62561   0.14095   0.00000  Uiso   1.00
C701   C     0.80024   0.62579   0.14593   0.00000  Uiso   1.00
C702   C     0.78315   0.62586   0.13594   0.00000  Uiso   1.00
C703   C     0.78316   0.62585   0.11586   0.00000  Uiso   1.00
C704   C     0.80026   0.62575   0.10589   0.00000  Uiso   1.00
N176   N     0.84092   0.62565   0.15897   0.00000  Uiso   1.00
H169   H     0.83873   0.62583   0.19943   0.00000  Uiso   1.00
O169   O     0.85435   0.62596   0.23386   0.00000  Uiso   1.00
O170   O     0.89364   0.62593   0.23384   0.00000  Uiso   1.00
H170   H     0.90923   0.62574   0.19941   0.00000  Uiso   1.00
H171   H     0.94769   0.62531   0.16117   0.00000  Uiso   1.00
O171   O     0.98217   0.62503   0.14420   0.00000  Uiso   1.00
O172   O     0.98218   0.62470   0.10766   0.00000  Uiso   1.00
H172   H     0.94770   0.62469   0.09069   0.00000  Uiso   1.00
H173   H     0.83874   0.62533   0.05220   0.00000  Uiso   1.00
O173   O     0.85571   0.62505   0.01772   0.00000  Uiso   1.00
O174   O     0.89226   0.62473   0.01772   0.00000  Uiso   1.00
H174   H     0.90922   0.62471   0.05220   0.00000  Uiso   1.00
H175   H     0.80046   0.62580   0.16116   0.00000  Uiso   1.00
O175   O     0.76603   0.62593   0.14554   0.00000  Uiso   1.00
O176   O     0.76606   0.62591   0.10624   0.00000  Uiso   1.00
H176   H     0.80049   0.62573   0.09066   0.00000  Uiso   1.00
Ni22   Ni    0.87398   0.62538   0.12591   0.00000  Uiso   1.00
C705   C     0.37419   0.85397   0.19966   0.00000  Uiso   1.00
C706   C     0.37411   0.86396   0.21674   0.00000  Uiso   1.00
C707   C     0.37413   0.88403   0.21674   0.00000  Uiso   1.00
C708   C     0.37423   0.89401   0.19964   0.00000  Uiso   1.00
C709   C     0.37431   0.88356   0.18301   0.00000  Uiso   1.00
C710   C     0.37429   0.86441   0.18301   0.00000  Uiso   1.00
C711   C     0.37438   0.85895   0.16442   0.00000  Uiso   1.00
N177   N     0.37447   0.87399   0.15259   0.00000  Uiso   1.00
C712   C     0.37443   0.88902   0.16443   0.00000  Uiso   1.00
N178   N     0.37453   0.90704   0.15898   0.00000  Uiso   1.00
C713   C     0.37470   0.91250   0.14096   0.00000  Uiso   1.00
N179   N     0.37476   0.90067   0.12592   0.00000  Uiso   1.00
C714   C     0.37495   0.91251   0.11088   0.00000  Uiso   1.00
C715   C     0.37500   0.93109   0.11633   0.00000  Uiso   1.00
C716   C     0.37484   0.93108   0.13552   0.00000  Uiso   1.00
N180   N     0.37476   0.87400   0.09924   0.00000  Uiso   1.00
C717   C     0.37494   0.88904   0.08741   0.00000  Uiso   1.00
N181   N     0.37504   0.90706   0.09286   0.00000  Uiso   1.00
C718   C     0.37499   0.88359   0.06882   0.00000  Uiso   1.00
C719   C     0.37482   0.86440   0.06882   0.00000  Uiso   1.00
C720   C     0.37469   0.85895   0.08741   0.00000  Uiso   1.00
C721   C     0.37483   0.94778   0.14594   0.00000  Uiso   1.00
C722   C     0.37499   0.96472   0.13570   0.00000  Uiso   1.00
C723   C     0.37516   0.96472   0.11617   0.00000  Uiso   1.00
C724   C     0.37517   0.94779   0.10592   0.00000  Uiso   1.00
C725   C     0.37480   0.85399   0.05213   0.00000  Uiso   1.00
C726   C     0.37495   0.86422   0.03519   0.00000  Uiso   1.00
C727   C     0.37511   0.88376   0.03519   0.00000  Uiso   1.00
C728   C     0.37514   0.89400   0.05212   0.00000  Uiso   1.00
N182   N     0.37447   0.84732   0.12592   0.00000  Uiso   1.00
C729   C     0.37443   0.83549   0.11088   0.00000  Uiso   1.00
N183   N     0.37453   0.84093   0.09286   0.00000  Uiso   1.00
C730   C     0.37432   0.81690   0.11634   0.00000  Uiso   1.00
C731   C     0.37429   0.81689   0.13548   0.00000  Uiso   1.00
C732   C     0.37439   0.83548   0.14095   0.00000  Uiso   1.00
C733   C     0.37419   0.80025   0.14592   0.00000  Uiso   1.00
C734   C     0.37412   0.78316   0.13593   0.00000  Uiso   1.00
C735   C     0.37414   0.78318   0.11585   0.00000  Uiso   1.00
C736   C     0.37424   0.80027   0.10588   0.00000  Uiso   1.00
N184   N     0.37435   0.84093   0.15897   0.00000  Uiso   1.00
H177   H     0.37418   0.83874   0.19944   0.00000  Uiso   1.00
O177   O     0.37404   0.85436   0.23387   0.00000  Uiso   1.00
O178   O     0.37406   0.89365   0.23384   0.00000  Uiso   1.00
H178   H     0.37425   0.90924   0.19941   0.00000  Uiso   1.00
H179   H     0.37470   0.94770   0.16117   0.00000  Uiso   1.00
O179   O     0.37499   0.98218   0.14421   0.00000  Uiso   1.00
O180   O     0.37531   0.98219   0.10766   0.00000  Uiso   1.00
H180   H     0.37530   0.94772   0.09069   0.00000  Uiso   1.00
H181   H     0.37467   0.83875   0.05220   0.00000  Uiso   1.00
O181   O     0.37493   0.85572   0.01773   0.00000  Uiso   1.00
O182   O     0.37524   0.89226   0.01772   0.00000  Uiso   1.00
H182   H     0.37526   0.90923   0.05220   0.00000  Uiso   1.00
H183   H     0.37418   0.80046   0.16115   0.00000  Uiso   1.00
O183   O     0.37405   0.76604   0.14552   0.00000  Uiso   1.00
O184   O     0.37406   0.76607   0.10623   0.00000  Uiso   1.00
H184   H     0.37426   0.80051   0.09065   0.00000  Uiso   1.00
Ni23   Ni    0.37462   0.87399   0.12591   0.00000  Uiso   1.00
C737   C     0.62573   0.10598   0.19963   0.00000  Uiso   1.00
C738   C     0.62583   0.11595   0.21672   0.00000  Uiso   1.00
C739   C     0.62585   0.13602   0.21673   0.00000  Uiso   1.00
C740   C     0.62578   0.14601   0.19965   0.00000  Uiso   1.00
C741   C     0.62567   0.13557   0.18300   0.00000  Uiso   1.00
C742   C     0.62565   0.11643   0.18300   0.00000  Uiso   1.00
C743   C     0.62553   0.11097   0.16441   0.00000  Uiso   1.00
N185   N     0.62549   0.12600   0.15258   0.00000  Uiso   1.00
C744   C     0.62558   0.14104   0.16442   0.00000  Uiso   1.00
N186   N     0.62563   0.15906   0.15897   0.00000  Uiso   1.00
C745   C     0.62559   0.16451   0.14094   0.00000  Uiso   1.00
N187   N     0.62550   0.15268   0.12591   0.00000  Uiso   1.00
C746   C     0.62555   0.16451   0.11088   0.00000  Uiso   1.00
C747   C     0.62568   0.18310   0.11633   0.00000  Uiso   1.00
C748   C     0.62570   0.18310   0.13548   0.00000  Uiso   1.00
N188   N     0.62520   0.12601   0.09923   0.00000  Uiso   1.00
C749   C     0.62528   0.14105   0.08740   0.00000  Uiso   1.00
N189   N     0.62545   0.15907   0.09285   0.00000  Uiso   1.00
C750   C     0.62514   0.13561   0.06881   0.00000  Uiso   1.00
C751   C     0.62497   0.11642   0.06881   0.00000  Uiso   1.00
C752   C     0.62501   0.11097   0.08740   0.00000  Uiso   1.00
C753   C     0.62580   0.19974   0.14592   0.00000  Uiso   1.00
C754   C     0.62588   0.21683   0.13593   0.00000  Uiso   1.00
C755   C     0.62587   0.21682   0.11585   0.00000  Uiso   1.00
C756   C     0.62576   0.19973   0.10588   0.00000  Uiso   1.00
C757   C     0.62480   0.10601   0.05211   0.00000  Uiso   1.00
C758   C     0.62483   0.11625   0.03518   0.00000  Uiso   1.00
C759   C     0.62500   0.13579   0.03518   0.00000  Uiso   1.00
C760   C     0.62516   0.14603   0.05212   0.00000  Uiso   1.00
N190   N     0.62520   0.09933   0.12591   0.00000  Uiso   1.00
C761   C     0.62501   0.08749   0.11087   0.00000  Uiso   1.00
N191   N     0.62492   0.09294   0.09284   0.00000  Uiso   1.00
C762   C     0.62496   0.06891   0.11632   0.00000  Uiso   1.00
C763   C     0.62513   0.06891   0.13550   0.00000  Uiso   1.00
C764   C     0.62527   0.08750   0.14095   0.00000  Uiso   1.00
C765   C     0.62515   0.05221   0.14592   0.00000  Uiso   1.00
C766   C     0.62499   0.03528   0.13568   0.00000  Uiso   1.00
C767   C     0.62482   0.03528   0.11615   0.00000  Uiso   1.00
C768   C     0.62480   0.05221   0.10591   0.00000  Uiso   1.00
N192   N     0.62543   0.09295   0.15897   0.00000  Uiso   1.00
H185   H     0.62571   0.09074   0.19940   0.00000  Uiso   1.00
O185   O     0.62591   0.10633   0.23383   0.00000  Uiso   1.00
O186   O     0.62592   0.14562   0.23386   0.00000  Uiso   1.00
H186   H     0.62579   0.16124   0.19943   0.00000  Uiso   1.00
H187   H     0.62581   0.19952   0.16115   0.00000  Uiso   1.00
O187   O     0.62595   0.23395   0.14552   0.00000  Uiso   1.00
O188   O     0.62594   0.23393   0.10623   0.00000  Uiso   1.00
H188   H     0.62575   0.19950   0.09065   0.00000  Uiso   1.00
H189   H     0.62467   0.09078   0.05219   0.00000  Uiso   1.00
O189   O     0.62469   0.10775   0.01771   0.00000  Uiso   1.00
O190   O     0.62501   0.14430   0.01771   0.00000  Uiso   1.00
H190   H     0.62530   0.16126   0.05219   0.00000  Uiso   1.00
H191   H     0.62528   0.05229   0.16115   0.00000  Uiso   1.00
O191   O     0.62500   0.01781   0.14419   0.00000  Uiso   1.00
O192   O     0.62467   0.01781   0.10764   0.00000  Uiso   1.00
H192   H     0.62466   0.05229   0.09067   0.00000  Uiso   1.00
Ni24   Ni    0.62535   0.12600   0.12590   0.00000  Uiso   1.00
C769   C     0.60600   0.69975   0.87412   0.00000  Uiso   1.00
C770   C     0.61597   0.71684   0.87402   0.00000  Uiso   1.00
C771   C     0.63604   0.71685   0.87400   0.00000  Uiso   1.00
C772   C     0.64603   0.69976   0.87408   0.00000  Uiso   1.00
C773   C     0.63559   0.68312   0.87418   0.00000  Uiso   1.00
C774   C     0.61645   0.68312   0.87420   0.00000  Uiso   1.00
C775   C     0.61099   0.66453   0.87432   0.00000  Uiso   1.00
N193   N     0.62602   0.65270   0.87437   0.00000  Uiso   1.00
C776   C     0.64105   0.66453   0.87428   0.00000  Uiso   1.00
N194   N     0.65908   0.65908   0.87425   0.00000  Uiso   1.00
C777   C     0.66453   0.64106   0.87429   0.00000  Uiso   1.00
N195   N     0.65269   0.62603   0.87438   0.00000  Uiso   1.00
C778   C     0.66453   0.61099   0.87434   0.00000  Uiso   1.00
C779   C     0.68311   0.61645   0.87422   0.00000  Uiso   1.00
C780   C     0.68312   0.63560   0.87420   0.00000  Uiso   1.00
N196   N     0.62602   0.59935   0.87466   0.00000  Uiso   1.00
C781   C     0.64107   0.58752   0.87459   0.00000  Uiso   1.00
N197   N     0.65909   0.59297   0.87443   0.00000  Uiso   1.00
C782   C     0.63562   0.56893   0.87473   0.00000  Uiso   1.00
C783   C     0.61644   0.56893   0.87490   0.00000  Uiso   1.00
C784   C     0.61098   0.58751   0.87485   0.00000  Uiso   1.00
C785   C     0.69976   0.64603   0.87411   0.00000  Uiso   1.00
C786   C     0.71685   0.63604   0.87404   0.00000  Uiso   1.00
C787   C     0.71684   0.61597   0.87405   0.00000  Uiso   1.00
C788   C     0.69975   0.60600   0.87415   0.00000  Uiso   1.00
C789   C     0.60602   0.55223   0.87506   0.00000  Uiso   1.00
C790   C     0.61627   0.53530   0.87504   0.00000  Uiso   1.00
C791   C     0.63580   0.53530   0.87487   0.00000  Uiso   1.00
C792   C     0.64604   0.55223   0.87471   0.00000  Uiso   1.00
N198   N     0.59934   0.62603   0.87466   0.00000  Uiso   1.00
C793   C     0.58751   0.61099   0.87485   0.00000  Uiso   1.00
N199   N     0.59296   0.59296   0.87494   0.00000  Uiso   1.00
C794   C     0.56893   0.61644   0.87490   0.00000  Uiso   1.00
C795   C     0.56893   0.63562   0.87473   0.00000  Uiso   1.00
C796   C     0.58751   0.64107   0.87458   0.00000  Uiso   1.00
C797   C     0.55223   0.64604   0.87471   0.00000  Uiso   1.00
C798   C     0.53530   0.63581   0.87487   0.00000  Uiso   1.00
C799   C     0.53529   0.61627   0.87505   0.00000  Uiso   1.00
C800   C     0.55223   0.60603   0.87507   0.00000  Uiso   1.00
N200   N     0.59297   0.65909   0.87442   0.00000  Uiso   1.00
H193   H     0.59076   0.69952   0.87414   0.00000  Uiso   1.00
O193   O     0.60635   0.73395   0.87394   0.00000  Uiso   1.00
O194   O     0.64564   0.73397   0.87393   0.00000  Uiso   1.00
H194   H     0.66126   0.69954   0.87407   0.00000  Uiso   1.00
H195   H     0.69954   0.66127   0.87410   0.00000  Uiso   1.00
O195   O     0.73397   0.64564   0.87397   0.00000  Uiso   1.00
O196   O     0.73395   0.60635   0.87398   0.00000  Uiso   1.00
H196   H     0.69951   0.59076   0.87417   0.00000  Uiso   1.00
H197   H     0.59079   0.55230   0.87519   0.00000  Uiso   1.00
O197   O     0.60776   0.51783   0.87518   0.00000  Uiso   1.00
O198   O     0.64431   0.51783   0.87486   0.00000  Uiso   1.00
H198   H     0.66127   0.55231   0.87458   0.00000  Uiso   1.00
H199   H     0.55231   0.66128   0.87457   0.00000  Uiso   1.00
O199   O     0.51783   0.64432   0.87486   0.00000  Uiso   1.00
O200   O     0.51783   0.60777   0.87519   0.00000  Uiso   1.00
H200   H     0.55230   0.59080   0.87520   0.00000  Uiso   1.00
Ni25   Ni    0.62602   0.62602   0.87452   0.00000  Uiso   1.00
C801   C     0.35399   0.69977   0.87410   0.00000  Uiso   1.00
C802   C     0.36398   0.71686   0.87402   0.00000  Uiso   1.00
C803   C     0.38405   0.71685   0.87403   0.00000  Uiso   1.00
C804   C     0.39402   0.69975   0.87413   0.00000  Uiso   1.00
C805   C     0.38357   0.68312   0.87421   0.00000  Uiso   1.00
C806   C     0.36443   0.68313   0.87420   0.00000  Uiso   1.00
C807   C     0.35896   0.66454   0.87429   0.00000  Uiso   1.00
N201   N     0.37400   0.65270   0.87438   0.00000  Uiso   1.00
C808   C     0.38903   0.66454   0.87433   0.00000  Uiso   1.00
N202   N     0.40705   0.65909   0.87443   0.00000  Uiso   1.00
C809   C     0.41251   0.64107   0.87459   0.00000  Uiso   1.00
N203   N     0.40068   0.62603   0.87467   0.00000  Uiso   1.00
C810   C     0.41251   0.61099   0.87486   0.00000  Uiso   1.00
C811   C     0.43110   0.61644   0.87491   0.00000  Uiso   1.00
C812   C     0.43109   0.63563   0.87474   0.00000  Uiso   1.00
N204   N     0.37400   0.59935   0.87467   0.00000  Uiso   1.00
C813   C     0.38904   0.58752   0.87485   0.00000  Uiso   1.00
N205   N     0.40707   0.59297   0.87495   0.00000  Uiso   1.00
C814   C     0.38359   0.56893   0.87489   0.00000  Uiso   1.00
C815   C     0.36441   0.56894   0.87472   0.00000  Uiso   1.00
C816   C     0.35896   0.58752   0.87459   0.00000  Uiso   1.00
C817   C     0.44779   0.64604   0.87472   0.00000  Uiso   1.00
C818   C     0.46473   0.63581   0.87488   0.00000  Uiso   1.00
C819   C     0.46473   0.61627   0.87505   0.00000  Uiso   1.00
C820   C     0.44780   0.60603   0.87507   0.00000  Uiso   1.00
C821   C     0.35399   0.55224   0.87470   0.00000  Uiso   1.00
C822   C     0.36423   0.53530   0.87485   0.00000  Uiso   1.00
C823   C     0.38376   0.53530   0.87502   0.00000  Uiso   1.00
C824   C     0.39401   0.55223   0.87505   0.00000  Uiso   1.00
N206   N     0.34733   0.62603   0.87438   0.00000  Uiso   1.00
C825   C     0.33549   0.61100   0.87434   0.00000  Uiso   1.00
N207   N     0.34094   0.59298   0.87443   0.00000  Uiso   1.00
C826   C     0.31691   0.61646   0.87423   0.00000  Uiso   1.00
C827   C     0.31690   0.63560   0.87421   0.00000  Uiso   1.00
C828   C     0.33549   0.64107   0.87430   0.00000  Uiso   1.00
C829   C     0.30026   0.64604   0.87411   0.00000  Uiso   1.00
C830   C     0.28317   0.63605   0.87404   0.00000  Uiso   1.00
C831   C     0.28319   0.61598   0.87405   0.00000  Uiso   1.00
C832   C     0.30028   0.60601   0.87415   0.00000  Uiso   1.00
N208   N     0.34094   0.65909   0.87426   0.00000  Uiso   1.00
H201   H     0.33876   0.69955   0.87410   0.00000  Uiso   1.00
O201   O     0.35438   0.73398   0.87395   0.00000  Uiso   1.00
O202   O     0.39367   0.73395   0.87396   0.00000  Uiso   1.00
H202   H     0.40926   0.69952   0.87414   0.00000  Uiso   1.00
H203   H     0.44771   0.66128   0.87458   0.00000  Uiso   1.00
O203   O     0.48219   0.64432   0.87487   0.00000  Uiso   1.00
O204   O     0.48220   0.60777   0.87519   0.00000  Uiso   1.00
H204   H     0.44773   0.59080   0.87520   0.00000  Uiso   1.00
H205   H     0.33876   0.55232   0.87457   0.00000  Uiso   1.00
O205   O     0.35572   0.51784   0.87484   0.00000  Uiso   1.00
O206   O     0.39227   0.51783   0.87515   0.00000  Uiso   1.00
H206   H     0.40924   0.55231   0.87518   0.00000  Uiso   1.00
H207   H     0.30048   0.66127   0.87410   0.00000  Uiso   1.00
O207   O     0.26605   0.64565   0.87397   0.00000  Uiso   1.00
O208   O     0.26608   0.60635   0.87398   0.00000  Uiso   1.00
H208   H     0.30051   0.59077   0.87417   0.00000  Uiso   1.00
Ni26   Ni    0.37400   0.62603   0.87452   0.00000  Uiso   1.00
C833   C     0.35399   0.44780   0.87470   0.00000  Uiso   1.00
C834   C     0.36423   0.46474   0.87485   0.00000  Uiso   1.00
C835   C     0.38377   0.46474   0.87502   0.00000  Uiso   1.00
C836   C     0.39401   0.44781   0.87504   0.00000  Uiso   1.00
C837   C     0.38360   0.43111   0.87489   0.00000  Uiso   1.00
C838   C     0.36441   0.43110   0.87472   0.00000  Uiso   1.00
C839   C     0.35897   0.41252   0.87459   0.00000  Uiso   1.00
N209   N     0.37401   0.40069   0.87466   0.00000  Uiso   1.00
C840   C     0.38905   0.41252   0.87484   0.00000  Uiso   1.00
N210   N     0.40707   0.40707   0.87494   0.00000  Uiso   1.00
C841   C     0.41252   0.38905   0.87485   0.00000  Uiso   1.00
N211   N     0.40069   0.37401   0.87466   0.00000  Uiso   1.00
C842   C     0.41252   0.35897   0.87459   0.00000  Uiso   1.00
C843   C     0.43111   0.36441   0.87472   0.00000  Uiso   1.00
C844   C     0.43111   0.38360   0.87490   0.00000  Uiso   1.00
N212   N     0.37401   0.34734   0.87438   0.00000  Uiso   1.00
C845   C     0.38905   0.33550   0.87433   0.00000  Uiso   1.00
N213   N     0.40707   0.34095   0.87442   0.00000  Uiso   1.00
C846   C     0.38359   0.31692   0.87422   0.00000  Uiso   1.00
C847   C     0.36445   0.31691   0.87421   0.00000  Uiso   1.00
C848   C     0.35898   0.33550   0.87430   0.00000  Uiso   1.00
C849   C     0.44781   0.39401   0.87506   0.00000  Uiso   1.00
C850   C     0.46474   0.38377   0.87504   0.00000  Uiso   1.00
C851   C     0.46474   0.36423   0.87487   0.00000  Uiso   1.00
C852   C     0.44780   0.35400   0.87471   0.00000  Uiso   1.00
C853   C     0.35401   0.30027   0.87412   0.00000  Uiso   1.00
C854   C     0.36400   0.28318   0.87404   0.00000  Uiso   1.00
C855   C     0.38407   0.28319   0.87404   0.00000  Uiso   1.00
C856   C     0.39404   0.30029   0.87414   0.00000  Uiso   1.00
N214   N     0.34734   0.37401   0.87439   0.00000  Uiso   1.00
C857   C     0.33551   0.35898   0.87432   0.00000  Uiso   1.00
N215   N     0.34096   0.34095   0.87428   0.00000  Uiso   1.00
C858   C     0.31692   0.36444   0.87423   0.00000  Uiso   1.00
C859   C     0.31692   0.38358   0.87425   0.00000  Uiso   1.00
C860   C     0.33550   0.38904   0.87435   0.00000  Uiso   1.00
C861   C     0.30029   0.39403   0.87417   0.00000  Uiso   1.00
C862   C     0.28319   0.38406   0.87408   0.00000  Uiso   1.00
C863   C     0.28319   0.36399   0.87407   0.00000  Uiso   1.00
C864   C     0.30028   0.35400   0.87414   0.00000  Uiso   1.00
N216   N     0.34095   0.40707   0.87444   0.00000  Uiso   1.00
H209   H     0.33876   0.44772   0.87457   0.00000  Uiso   1.00
O209   O     0.35572   0.48220   0.87483   0.00000  Uiso   1.00
O210   O     0.39227   0.48221   0.87515   0.00000  Uiso   1.00
H210   H     0.40924   0.44773   0.87517   0.00000  Uiso   1.00
H211   H     0.44773   0.40924   0.87519   0.00000  Uiso   1.00
O211   O     0.48221   0.39227   0.87518   0.00000  Uiso   1.00
O212   O     0.48221   0.35573   0.87486   0.00000  Uiso   1.00
H212   H     0.44773   0.33876   0.87457   0.00000  Uiso   1.00
H213   H     0.33877   0.30049   0.87412   0.00000  Uiso   1.00
O213   O     0.35440   0.26606   0.87398   0.00000  Uiso   1.00
O214   O     0.39370   0.26609   0.87397   0.00000  Uiso   1.00
H214   H     0.40928   0.30052   0.87415   0.00000  Uiso   1.00
H215   H     0.30052   0.40927   0.87418   0.00000  Uiso   1.00
O215   O     0.26608   0.39368   0.87401   0.00000  Uiso   1.00
O216   O     0.26606   0.35439   0.87401   0.00000  Uiso   1.00
H216   H     0.30050   0.33877   0.87414   0.00000  Uiso   1.00
Ni27   Ni    0.37401   0.37401   0.87452   0.00000  Uiso   1.00
C865   C     0.60603   0.44780   0.87507   0.00000  Uiso   1.00
C866   C     0.61627   0.46473   0.87505   0.00000  Uiso   1.00
C867   C     0.63581   0.46473   0.87488   0.00000  Uiso   1.00
C868   C     0.64605   0.44780   0.87473   0.00000  Uiso   1.00
C869   C     0.63563   0.43110   0.87474   0.00000  Uiso   1.00
C870   C     0.61644   0.43110   0.87491   0.00000  Uiso   1.00
C871   C     0.61099   0.41252   0.87487   0.00000  Uiso   1.00
N217   N     0.62603   0.40068   0.87468   0.00000  Uiso   1.00
C872   C     0.64108   0.41251   0.87461   0.00000  Uiso   1.00
N218   N     0.65910   0.40706   0.87445   0.00000  Uiso   1.00
C873   C     0.66454   0.38903   0.87436   0.00000  Uiso   1.00
N219   N     0.65270   0.37400   0.87440   0.00000  Uiso   1.00
C874   C     0.66454   0.35897   0.87431   0.00000  Uiso   1.00
C875   C     0.68313   0.36443   0.87423   0.00000  Uiso   1.00
C876   C     0.68313   0.38357   0.87425   0.00000  Uiso   1.00
N220   N     0.62603   0.34733   0.87439   0.00000  Uiso   1.00
C877   C     0.64107   0.33550   0.87430   0.00000  Uiso   1.00
N221   N     0.65909   0.34094   0.87427   0.00000  Uiso   1.00
C878   C     0.63560   0.31691   0.87420   0.00000  Uiso   1.00
C879   C     0.61646   0.31691   0.87422   0.00000  Uiso   1.00
C880   C     0.61100   0.33550   0.87434   0.00000  Uiso   1.00
C881   C     0.69976   0.39402   0.87417   0.00000  Uiso   1.00
C882   C     0.71685   0.38405   0.87408   0.00000  Uiso   1.00
C883   C     0.71686   0.36397   0.87406   0.00000  Uiso   1.00
C884   C     0.69977   0.35399   0.87413   0.00000  Uiso   1.00
C885   C     0.60601   0.30028   0.87413   0.00000  Uiso   1.00
C886   C     0.61598   0.28319   0.87404   0.00000  Uiso   1.00
C887   C     0.63606   0.28318   0.87403   0.00000  Uiso   1.00
C888   C     0.64604   0.30027   0.87411   0.00000  Uiso   1.00
N222   N     0.59935   0.37401   0.87468   0.00000  Uiso   1.00
C889   C     0.58752   0.35896   0.87460   0.00000  Uiso   1.00
N223   N     0.59298   0.34094   0.87443   0.00000  Uiso   1.00
C890   C     0.56894   0.36441   0.87474   0.00000  Uiso   1.00
C891   C     0.56894   0.38360   0.87491   0.00000  Uiso   1.00
C892   C     0.58752   0.38905   0.87487   0.00000  Uiso   1.00
C893   C     0.55224   0.39401   0.87508   0.00000  Uiso   1.00
C894   C     0.53530   0.38377   0.87505   0.00000  Uiso   1.00
C895   C     0.53531   0.36423   0.87488   0.00000  Uiso   1.00
C896   C     0.55224   0.35400   0.87472   0.00000  Uiso   1.00
N224   N     0.59297   0.40707   0.87496   0.00000  Uiso   1.00
H217   H     0.59080   0.44773   0.87520   0.00000  Uiso   1.00
O217   O     0.60777   0.48220   0.87518   0.00000  Uiso   1.00
O218   O     0.64432   0.48220   0.87487   0.00000  Uiso   1.00
H218   H     0.66128   0.44772   0.87459   0.00000  Uiso   1.00
H219   H     0.69953   0.40926   0.87419   0.00000  Uiso   1.00
O219   O     0.73396   0.39366   0.87401   0.00000  Uiso   1.00
O220   O     0.73398   0.35437   0.87399   0.00000  Uiso   1.00
H220   H     0.69955   0.33875   0.87412   0.00000  Uiso   1.00
H221   H     0.59077   0.30051   0.87414   0.00000  Uiso   1.00
O221   O     0.60636   0.26608   0.87396   0.00000  Uiso   1.00
O222   O     0.64565   0.26606   0.87396   0.00000  Uiso   1.00
H222   H     0.66128   0.30048   0.87411   0.00000  Uiso   1.00
H223   H     0.55231   0.40924   0.87521   0.00000  Uiso   1.00
O223   O     0.51784   0.39227   0.87519   0.00000  Uiso   1.00
O224   O     0.51784   0.35573   0.87487   0.00000  Uiso   1.00
H224   H     0.55232   0.33876   0.87458   0.00000  Uiso   1.00
Ni28   Ni    0.62603   0.37401   0.87454   0.00000  Uiso   1.00
C897   C     0.60600   0.44778   0.12464   0.00000  Uiso   1.00
C898   C     0.61625   0.46471   0.12466   0.00000  Uiso   1.00
C899   C     0.63578   0.46471   0.12485   0.00000  Uiso   1.00
C900   C     0.64602   0.44777   0.12502   0.00000  Uiso   1.00
C901   C     0.63560   0.43108   0.12501   0.00000  Uiso   1.00
C902   C     0.61642   0.43108   0.12482   0.00000  Uiso   1.00
C903   C     0.61097   0.41250   0.12487   0.00000  Uiso   1.00
N225   N     0.62601   0.40066   0.12508   0.00000  Uiso   1.00
C904   C     0.64105   0.41249   0.12516   0.00000  Uiso   1.00
N226   N     0.65907   0.40704   0.12534   0.00000  Uiso   1.00
C905   C     0.66451   0.38902   0.12545   0.00000  Uiso   1.00
N227   N     0.65268   0.37398   0.12540   0.00000  Uiso   1.00
C906   C     0.66452   0.35895   0.12550   0.00000  Uiso   1.00
C907   C     0.68311   0.36441   0.12561   0.00000  Uiso   1.00
C908   C     0.68310   0.38356   0.12559   0.00000  Uiso   1.00
N228   N     0.62601   0.34731   0.12540   0.00000  Uiso   1.00
C909   C     0.64104   0.33548   0.12549   0.00000  Uiso   1.00
N229   N     0.65907   0.34092   0.12553   0.00000  Uiso   1.00
C910   C     0.63558   0.31689   0.12559   0.00000  Uiso   1.00
C911   C     0.61644   0.31689   0.12557   0.00000  Uiso   1.00
C912   C     0.61098   0.33548   0.12544   0.00000  Uiso   1.00
C913   C     0.69973   0.39401   0.12568   0.00000  Uiso   1.00
C914   C     0.71682   0.38404   0.12579   0.00000  Uiso   1.00
C915   C     0.71684   0.36396   0.12580   0.00000  Uiso   1.00
C916   C     0.69975   0.35397   0.12572   0.00000  Uiso   1.00
C917   C     0.60599   0.30026   0.12565   0.00000  Uiso   1.00
C918   C     0.61596   0.28317   0.12575   0.00000  Uiso   1.00
C919   C     0.63604   0.28316   0.12576   0.00000  Uiso   1.00
C920   C     0.64602   0.30025   0.12569   0.00000  Uiso   1.00
N230   N     0.59933   0.37399   0.12508   0.00000  Uiso   1.00
C921   C     0.58750   0.35894   0.12517   0.00000  Uiso   1.00
N231   N     0.59295   0.34092   0.12534   0.00000  Uiso   1.00
C922   C     0.56892   0.36439   0.12502   0.00000  Uiso   1.00
C923   C     0.56891   0.38357   0.12483   0.00000  Uiso   1.00
C924   C     0.58750   0.38903   0.12488   0.00000  Uiso   1.00
C925   C     0.55221   0.39399   0.12466   0.00000  Uiso   1.00
C926   C     0.53528   0.38375   0.12469   0.00000  Uiso   1.00
C927   C     0.53528   0.36421   0.12488   0.00000  Uiso   1.00
C928   C     0.55222   0.35397   0.12505   0.00000  Uiso   1.00
N232   N     0.59294   0.40705   0.12477   0.00000  Uiso   1.00
H225   H     0.59077   0.44771   0.12450   0.00000  Uiso   1.00
O225   O     0.60774   0.48218   0.12451   0.00000  Uiso   1.00
O226   O     0.64429   0.48218   0.12486   0.00000  Uiso   1.00
H226   H     0.66125   0.44770   0.12517   0.00000  Uiso   1.00
H227   H     0.69950   0.40924   0.12566   0.00000  Uiso   1.00
O227   O     0.73393   0.39365   0.12586   0.00000  Uiso   1.00
O228   O     0.73396   0.35436   0.12588   0.00000  Uiso   1.00
H228   H     0.69953   0.33874   0.12573   0.00000  Uiso   1.00
H229   H     0.59075   0.30049   0.12563   0.00000  Uiso   1.00
O229   O     0.60634   0.26606   0.12583   0.00000  Uiso   1.00
O230   O     0.64564   0.26604   0.12584   0.00000  Uiso   1.00
H230   H     0.66126   0.30047   0.12570   0.00000  Uiso   1.00
H231   H     0.55229   0.40922   0.12451   0.00000  Uiso   1.00
O231   O     0.51781   0.39225   0.12455   0.00000  Uiso   1.00
O232   O     0.51782   0.35570   0.12490   0.00000  Uiso   1.00
H232   H     0.55230   0.33874   0.12520   0.00000  Uiso   1.00
Ni29   Ni    0.62600   0.37399   0.12524   0.00000  Uiso   1.00
C929   C     0.60598   0.69973   0.12561   0.00000  Uiso   1.00
C930   C     0.61595   0.71682   0.12572   0.00000  Uiso   1.00
C931   C     0.63603   0.71683   0.12574   0.00000  Uiso   1.00
C932   C     0.64601   0.69974   0.12567   0.00000  Uiso   1.00
C933   C     0.63558   0.68310   0.12556   0.00000  Uiso   1.00
C934   C     0.61643   0.68310   0.12553   0.00000  Uiso   1.00
C935   C     0.61097   0.66451   0.12541   0.00000  Uiso   1.00
N233   N     0.62600   0.65268   0.12537   0.00000  Uiso   1.00
C936   C     0.64104   0.66451   0.12547   0.00000  Uiso   1.00
N234   N     0.65906   0.65906   0.12551   0.00000  Uiso   1.00
C937   C     0.66451   0.64103   0.12548   0.00000  Uiso   1.00
N235   N     0.65267   0.62600   0.12539   0.00000  Uiso   1.00
C938   C     0.66451   0.61097   0.12544   0.00000  Uiso   1.00
C939   C     0.68309   0.61643   0.12557   0.00000  Uiso   1.00
C940   C     0.68310   0.63557   0.12559   0.00000  Uiso   1.00
N236   N     0.62600   0.59932   0.12508   0.00000  Uiso   1.00
C941   C     0.64104   0.58749   0.12516   0.00000  Uiso   1.00
N237   N     0.65906   0.59295   0.12534   0.00000  Uiso   1.00
C942   C     0.63560   0.56891   0.12501   0.00000  Uiso   1.00
C943   C     0.61641   0.56891   0.12482   0.00000  Uiso   1.00
C944   C     0.61096   0.58749   0.12487   0.00000  Uiso   1.00
C945   C     0.69974   0.64601   0.12569   0.00000  Uiso   1.00
C946   C     0.71683   0.63602   0.12577   0.00000  Uiso   1.00
C947   C     0.71682   0.61594   0.12577   0.00000  Uiso   1.00
C948   C     0.69972   0.60597   0.12566   0.00000  Uiso   1.00
C949   C     0.60600   0.55221   0.12465   0.00000  Uiso   1.00
C950   C     0.61624   0.53528   0.12467   0.00000  Uiso   1.00
C951   C     0.63578   0.53528   0.12486   0.00000  Uiso   1.00
C952   C     0.64602   0.55221   0.12503   0.00000  Uiso   1.00
N238   N     0.59932   0.62601   0.12506   0.00000  Uiso   1.00
C953   C     0.58749   0.61097   0.12487   0.00000  Uiso   1.00
N239   N     0.59294   0.59294   0.12477   0.00000  Uiso   1.00
C954   C     0.56891   0.61642   0.12482   0.00000  Uiso   1.00
C955   C     0.56891   0.63561   0.12499   0.00000  Uiso   1.00
C956   C     0.58749   0.64105   0.12514   0.00000  Uiso   1.00
C957   C     0.55221   0.64602   0.12501   0.00000  Uiso   1.00
C958   C     0.53528   0.63579   0.12485   0.00000  Uiso   1.00
C959   C     0.53527   0.61625   0.12467   0.00000  Uiso   1.00
C960   C     0.55221   0.60601   0.12465   0.00000  Uiso   1.00
N240   N     0.59295   0.65907   0.12531   0.00000  Uiso   1.00
H233   H     0.59075   0.69950   0.12558   0.00000  Uiso   1.00
O233   O     0.60633   0.73393   0.12579   0.00000  Uiso   1.00
O234   O     0.64563   0.73395   0.12582   0.00000  Uiso   1.00
H234   H     0.66125   0.69952   0.12569   0.00000  Uiso   1.00
H235   H     0.69952   0.66124   0.12570   0.00000  Uiso   1.00
O235   O     0.73395   0.64561   0.12585   0.00000  Uiso   1.00
O236   O     0.73393   0.60632   0.12584   0.00000  Uiso   1.00
H236   H     0.69949   0.59074   0.12564   0.00000  Uiso   1.00
H237   H     0.59077   0.55229   0.12450   0.00000  Uiso   1.00
O237   O     0.60774   0.51781   0.12452   0.00000  Uiso   1.00
O238   O     0.64429   0.51781   0.12487   0.00000  Uiso   1.00
H238   H     0.66125   0.55229   0.12518   0.00000  Uiso   1.00
H239   H     0.55229   0.66126   0.12515   0.00000  Uiso   1.00
O239   O     0.51781   0.64430   0.12487   0.00000  Uiso   1.00
O240   O     0.51781   0.60775   0.12453   0.00000  Uiso   1.00
H240   H     0.55228   0.59078   0.12452   0.00000  Uiso   1.00
Ni30   Ni    0.62600   0.62600   0.12522   0.00000  Uiso   1.00
C961   C     0.35397   0.69975   0.12566   0.00000  Uiso   1.00
C962   C     0.36396   0.71684   0.12574   0.00000  Uiso   1.00
C963   C     0.38404   0.71683   0.12573   0.00000  Uiso   1.00
C964   C     0.39401   0.69973   0.12563   0.00000  Uiso   1.00
C965   C     0.38355   0.68310   0.12554   0.00000  Uiso   1.00
C966   C     0.36441   0.68311   0.12556   0.00000  Uiso   1.00
C967   C     0.35895   0.66452   0.12546   0.00000  Uiso   1.00
N241   N     0.37398   0.65268   0.12537   0.00000  Uiso   1.00
C968   C     0.38901   0.66452   0.12542   0.00000  Uiso   1.00
N242   N     0.40704   0.65907   0.12532   0.00000  Uiso   1.00
C969   C     0.41249   0.64105   0.12515   0.00000  Uiso   1.00
N243   N     0.40066   0.62601   0.12507   0.00000  Uiso   1.00
C970   C     0.41249   0.61097   0.12486   0.00000  Uiso   1.00
C971   C     0.43108   0.61642   0.12482   0.00000  Uiso   1.00
C972   C     0.43107   0.63561   0.12500   0.00000  Uiso   1.00
N244   N     0.37398   0.59933   0.12507   0.00000  Uiso   1.00
C973   C     0.38902   0.58750   0.12486   0.00000  Uiso   1.00
N245   N     0.40705   0.59295   0.12477   0.00000  Uiso   1.00
C974   C     0.38357   0.56891   0.12482   0.00000  Uiso   1.00
C975   C     0.36439   0.56892   0.12501   0.00000  Uiso   1.00
C976   C     0.35894   0.58750   0.12515   0.00000  Uiso   1.00
C977   C     0.44777   0.64602   0.12502   0.00000  Uiso   1.00
C978   C     0.46471   0.63579   0.12486   0.00000  Uiso   1.00
C979   C     0.46471   0.61625   0.12468   0.00000  Uiso   1.00
C980   C     0.44778   0.60601   0.12465   0.00000  Uiso   1.00
C981   C     0.35397   0.55222   0.12503   0.00000  Uiso   1.00
C982   C     0.36421   0.53529   0.12486   0.00000  Uiso   1.00
C983   C     0.38374   0.53528   0.12467   0.00000  Uiso   1.00
C984   C     0.39398   0.55221   0.12465   0.00000  Uiso   1.00
N246   N     0.34731   0.62601   0.12538   0.00000  Uiso   1.00
C985   C     0.33548   0.61098   0.12544   0.00000  Uiso   1.00
N247   N     0.34092   0.59296   0.12533   0.00000  Uiso   1.00
C986   C     0.31689   0.61644   0.12557   0.00000  Uiso   1.00
C987   C     0.31688   0.63558   0.12558   0.00000  Uiso   1.00
C988   C     0.33547   0.64105   0.12547   0.00000  Uiso   1.00
C989   C     0.30024   0.64602   0.12569   0.00000  Uiso   1.00
C990   C     0.28315   0.63603   0.12578   0.00000  Uiso   1.00
C991   C     0.28317   0.61596   0.12577   0.00000  Uiso   1.00
C992   C     0.30026   0.60599   0.12566   0.00000  Uiso   1.00
N248   N     0.34092   0.65907   0.12550   0.00000  Uiso   1.00
H241   H     0.33874   0.69954   0.12567   0.00000  Uiso   1.00
O241   O     0.35436   0.73396   0.12582   0.00000  Uiso   1.00
O242   O     0.39366   0.73393   0.12582   0.00000  Uiso   1.00
H242   H     0.40924   0.69950   0.12561   0.00000  Uiso   1.00
H243   H     0.44769   0.66126   0.12516   0.00000  Uiso   1.00
O243   O     0.48217   0.64430   0.12487   0.00000  Uiso   1.00
O244   O     0.48218   0.60775   0.12453   0.00000  Uiso   1.00
H244   H     0.44771   0.59078   0.12451   0.00000  Uiso   1.00
H245   H     0.33874   0.55230   0.12518   0.00000  Uiso   1.00
O245   O     0.35570   0.51782   0.12488   0.00000  Uiso   1.00
O246   O     0.39225   0.51781   0.12453   0.00000  Uiso   1.00
H246   H     0.40922   0.55229   0.12450   0.00000  Uiso   1.00
H247   H     0.30046   0.66126   0.12569   0.00000  Uiso   1.00
O247   O     0.26603   0.64563   0.12585   0.00000  Uiso   1.00
O248   O     0.26606   0.60634   0.12585   0.00000  Uiso   1.00
H248   H     0.30049   0.59075   0.12564   0.00000  Uiso   1.00
Ni31   Ni    0.37398   0.62601   0.12522   0.00000  Uiso   1.00
C993   C     0.35397   0.44778   0.12505   0.00000  Uiso   1.00
C994   C     0.36420   0.46472   0.12488   0.00000  Uiso   1.00
C995   C     0.38374   0.46472   0.12469   0.00000  Uiso   1.00
C996   C     0.39398   0.44778   0.12467   0.00000  Uiso   1.00
C997   C     0.38357   0.43109   0.12485   0.00000  Uiso   1.00
C998   C     0.36439   0.43108   0.12504   0.00000  Uiso   1.00
C999   C     0.35894   0.41250   0.12519   0.00000  Uiso   1.00
N249   N     0.37399   0.40067   0.12511   0.00000  Uiso   1.00
C1000  C     0.38903   0.41250   0.12490   0.00000  Uiso   1.00
N250   N     0.40705   0.40705   0.12480   0.00000  Uiso   1.00
C1001  C     0.41250   0.38903   0.12491   0.00000  Uiso   1.00
N251   N     0.40067   0.37399   0.12511   0.00000  Uiso   1.00
C1002  C     0.41250   0.35895   0.12519   0.00000  Uiso   1.00
C1003  C     0.43108   0.36439   0.12505   0.00000  Uiso   1.00
C1004  C     0.43108   0.38358   0.12486   0.00000  Uiso   1.00
N252   N     0.37399   0.34732   0.12542   0.00000  Uiso   1.00
C1005  C     0.38902   0.33548   0.12547   0.00000  Uiso   1.00
N253   N     0.40705   0.34093   0.12537   0.00000  Uiso   1.00
C1006  C     0.38357   0.31690   0.12560   0.00000  Uiso   1.00
C1007  C     0.36442   0.31689   0.12561   0.00000  Uiso   1.00
C1008  C     0.35896   0.33548   0.12552   0.00000  Uiso   1.00
C1009  C     0.44778   0.39399   0.12468   0.00000  Uiso   1.00
C1010  C     0.46472   0.38375   0.12471   0.00000  Uiso   1.00
C1011  C     0.46472   0.36421   0.12490   0.00000  Uiso   1.00
C1012  C     0.44778   0.35398   0.12507   0.00000  Uiso   1.00
C1013  C     0.35399   0.30025   0.12571   0.00000  Uiso   1.00
C1014  C     0.36398   0.28316   0.12579   0.00000  Uiso   1.00
C1015  C     0.38405   0.28317   0.12578   0.00000  Uiso   1.00
C1016  C     0.39402   0.30027   0.12568   0.00000  Uiso   1.00
N254   N     0.34732   0.37399   0.12543   0.00000  Uiso   1.00
C1017  C     0.33548   0.35896   0.12552   0.00000  Uiso   1.00
N255   N     0.34093   0.34093   0.12555   0.00000  Uiso   1.00
C1018  C     0.31689   0.36442   0.12562   0.00000  Uiso   1.00
C1019  C     0.31690   0.38356   0.12561   0.00000  Uiso   1.00
C1020  C     0.33548   0.38902   0.12548   0.00000  Uiso   1.00
C1021  C     0.30026   0.39401   0.12569   0.00000  Uiso   1.00
C1022  C     0.28317   0.38404   0.12580   0.00000  Uiso   1.00
C1023  C     0.28316   0.36396   0.12581   0.00000  Uiso   1.00
C1024  C     0.30025   0.35398   0.12573   0.00000  Uiso   1.00
N256   N     0.34092   0.40705   0.12537   0.00000  Uiso   1.00
H249   H     0.33874   0.44770   0.12520   0.00000  Uiso   1.00
O249   O     0.35570   0.48218   0.12489   0.00000  Uiso   1.00
O250   O     0.39224   0.48218   0.12453   0.00000  Uiso   1.00
H250   H     0.40922   0.44771   0.12452   0.00000  Uiso   1.00
H251   H     0.44771   0.40922   0.12454   0.00000  Uiso   1.00
O251   O     0.48218   0.39225   0.12456   0.00000  Uiso   1.00
O252   O     0.48218   0.35571   0.12491   0.00000  Uiso   1.00
H252   H     0.44770   0.33874   0.12522   0.00000  Uiso   1.00
H253   H     0.33875   0.30047   0.12572   0.00000  Uiso   1.00
O253   O     0.35438   0.26604   0.12586   0.00000  Uiso   1.00
O254   O     0.39368   0.26607   0.12586   0.00000  Uiso   1.00
H254   H     0.40926   0.30050   0.12566   0.00000  Uiso   1.00
H255   H     0.30049   0.40925   0.12567   0.00000  Uiso   1.00
O255   O     0.26606   0.39366   0.12588   0.00000  Uiso   1.00
O256   O     0.26604   0.35436   0.12589   0.00000  Uiso   1.00
H256   H     0.30047   0.33874   0.12574   0.00000  Uiso   1.00
Ni32   Ni    0.37399   0.37399   0.12527   0.00000  Uiso   1.00
C1025  C     0.87489   0.55224   0.64594   0.00000  Uiso   1.00
C1026  C     0.87505   0.53531   0.63571   0.00000  Uiso   1.00
C1027  C     0.87521   0.53530   0.61617   0.00000  Uiso   1.00
C1028  C     0.87523   0.55223   0.60593   0.00000  Uiso   1.00
C1029  C     0.87507   0.56894   0.61634   0.00000  Uiso   1.00
C1030  C     0.87490   0.56894   0.63552   0.00000  Uiso   1.00
C1031  C     0.87476   0.58752   0.64097   0.00000  Uiso   1.00
N257   N     0.87483   0.59935   0.62592   0.00000  Uiso   1.00
C1032  C     0.87502   0.58752   0.61088   0.00000  Uiso   1.00
N258   N     0.87510   0.59296   0.59286   0.00000  Uiso   1.00
C1033  C     0.87501   0.61099   0.58741   0.00000  Uiso   1.00
N259   N     0.87482   0.62603   0.59924   0.00000  Uiso   1.00
C1034  C     0.87474   0.64107   0.58740   0.00000  Uiso   1.00
C1035  C     0.87488   0.63562   0.56882   0.00000  Uiso   1.00
C1036  C     0.87505   0.61644   0.56882   0.00000  Uiso   1.00
N260   N     0.87453   0.65270   0.62591   0.00000  Uiso   1.00
C1037  C     0.87448   0.66454   0.61088   0.00000  Uiso   1.00
N261   N     0.87458   0.65909   0.59286   0.00000  Uiso   1.00
C1038  C     0.87436   0.68312   0.61633   0.00000  Uiso   1.00
C1039  C     0.87434   0.68313   0.63548   0.00000  Uiso   1.00
C1040  C     0.87444   0.66454   0.64094   0.00000  Uiso   1.00
C1041  C     0.87521   0.60602   0.55212   0.00000  Uiso   1.00
C1042  C     0.87518   0.61626   0.53519   0.00000  Uiso   1.00
C1043  C     0.87501   0.63580   0.53519   0.00000  Uiso   1.00
C1044  C     0.87486   0.64604   0.55212   0.00000  Uiso   1.00
C1045  C     0.87424   0.69977   0.64591   0.00000  Uiso   1.00
C1046  C     0.87416   0.71686   0.63592   0.00000  Uiso   1.00
C1047  C     0.87418   0.71685   0.61585   0.00000  Uiso   1.00
C1048  C     0.87428   0.69975   0.60588   0.00000  Uiso   1.00
N262   N     0.87453   0.62603   0.65259   0.00000  Uiso   1.00
C1049  C     0.87443   0.64107   0.66442   0.00000  Uiso   1.00
N263   N     0.87440   0.65909   0.65897   0.00000  Uiso   1.00
C1050  C     0.87434   0.63561   0.68301   0.00000  Uiso   1.00
C1051  C     0.87437   0.61646   0.68301   0.00000  Uiso   1.00
C1052  C     0.87449   0.61100   0.66443   0.00000  Uiso   1.00
C1053  C     0.87428   0.60601   0.69964   0.00000  Uiso   1.00
C1054  C     0.87417   0.61599   0.71673   0.00000  Uiso   1.00
C1055  C     0.87415   0.63606   0.71674   0.00000  Uiso   1.00
C1056  C     0.87423   0.64605   0.69965   0.00000  Uiso   1.00
N264   N     0.87460   0.59298   0.65898   0.00000  Uiso   1.00
H257   H     0.87476   0.55232   0.66117   0.00000  Uiso   1.00
O257   O     0.87504   0.51784   0.64422   0.00000  Uiso   1.00
O258   O     0.87534   0.51783   0.60767   0.00000  Uiso   1.00
H258   H     0.87535   0.55231   0.59069   0.00000  Uiso   1.00
H259   H     0.87534   0.59079   0.55220   0.00000  Uiso   1.00
O259   O     0.87532   0.60776   0.51772   0.00000  Uiso   1.00
O260   O     0.87499   0.64431   0.51772   0.00000  Uiso   1.00
H260   H     0.87472   0.66127   0.55220   0.00000  Uiso   1.00
H261   H     0.87423   0.69956   0.66115   0.00000  Uiso   1.00
O261   O     0.87409   0.73398   0.64552   0.00000  Uiso   1.00
O262   O     0.87410   0.73395   0.60622   0.00000  Uiso   1.00
H262   H     0.87430   0.69952   0.59064   0.00000  Uiso   1.00
H263   H     0.87431   0.59078   0.69941   0.00000  Uiso   1.00
O263   O     0.87410   0.60637   0.73384   0.00000  Uiso   1.00
O264   O     0.87407   0.64566   0.73386   0.00000  Uiso   1.00
H264   H     0.87421   0.66128   0.69943   0.00000  Uiso   1.00
Ni33   Ni    0.87468   0.62603   0.62591   0.00000  Uiso   1.00
C1057  C     0.35399   0.87425   0.69966   0.00000  Uiso   1.00
C1058  C     0.36398   0.87418   0.71675   0.00000  Uiso   1.00
C1059  C     0.38405   0.87419   0.71674   0.00000  Uiso   1.00
C1060  C     0.39403   0.87429   0.69964   0.00000  Uiso   1.00
C1061  C     0.38358   0.87437   0.68301   0.00000  Uiso   1.00
C1062  C     0.36443   0.87435   0.68302   0.00000  Uiso   1.00
C1063  C     0.35897   0.87444   0.66443   0.00000  Uiso   1.00
N265   N     0.37400   0.87452   0.65259   0.00000  Uiso   1.00
C1064  C     0.38903   0.87448   0.66443   0.00000  Uiso   1.00
N266   N     0.40706   0.87458   0.65898   0.00000  Uiso   1.00
C1065  C     0.41251   0.87474   0.64096   0.00000  Uiso   1.00
N267   N     0.40068   0.87481   0.62592   0.00000  Uiso   1.00
C1066  C     0.41251   0.87501   0.61087   0.00000  Uiso   1.00
C1067  C     0.43110   0.87506   0.61633   0.00000  Uiso   1.00
C1068  C     0.43110   0.87489   0.63551   0.00000  Uiso   1.00
N268   N     0.37400   0.87480   0.59924   0.00000  Uiso   1.00
C1069  C     0.38904   0.87500   0.58741   0.00000  Uiso   1.00
N269   N     0.40707   0.87510   0.59285   0.00000  Uiso   1.00
C1070  C     0.38359   0.87504   0.56882   0.00000  Uiso   1.00
C1071  C     0.36441   0.87486   0.56883   0.00000  Uiso   1.00
C1072  C     0.35896   0.87472   0.58741   0.00000  Uiso   1.00
C1073  C     0.44779   0.87487   0.64593   0.00000  Uiso   1.00
C1074  C     0.46473   0.87503   0.63569   0.00000  Uiso   1.00
C1075  C     0.46473   0.87521   0.61615   0.00000  Uiso   1.00
C1076  C     0.44780   0.87523   0.60591   0.00000  Uiso   1.00
C1077  C     0.35399   0.87484   0.55213   0.00000  Uiso   1.00
C1078  C     0.36423   0.87500   0.53519   0.00000  Uiso   1.00
C1079  C     0.38376   0.87518   0.53519   0.00000  Uiso   1.00
C1080  C     0.39400   0.87521   0.55212   0.00000  Uiso   1.00
N270   N     0.34733   0.87451   0.62592   0.00000  Uiso   1.00
C1081  C     0.33550   0.87445   0.61089   0.00000  Uiso   1.00
N271   N     0.34094   0.87455   0.59286   0.00000  Uiso   1.00
C1082  C     0.31691   0.87433   0.61635   0.00000  Uiso   1.00
C1083  C     0.31691   0.87432   0.63549   0.00000  Uiso   1.00
C1084  C     0.33549   0.87442   0.64095   0.00000  Uiso   1.00
C1085  C     0.30027   0.87422   0.64593   0.00000  Uiso   1.00
C1086  C     0.28318   0.87414   0.63595   0.00000  Uiso   1.00
C1087  C     0.28319   0.87415   0.61587   0.00000  Uiso   1.00
C1088  C     0.30028   0.87424   0.60590   0.00000  Uiso   1.00
N272   N     0.34094   0.87440   0.65898   0.00000  Uiso   1.00
H265   H     0.33876   0.87424   0.69944   0.00000  Uiso   1.00
O265   O     0.35438   0.87410   0.73387   0.00000  Uiso   1.00
O266   O     0.39367   0.87411   0.73384   0.00000  Uiso   1.00
H266   H     0.40926   0.87430   0.69941   0.00000  Uiso   1.00
H267   H     0.44772   0.87473   0.66116   0.00000  Uiso   1.00
O267   O     0.48220   0.87502   0.64420   0.00000  Uiso   1.00
O268   O     0.48220   0.87535   0.60765   0.00000  Uiso   1.00
H268   H     0.44772   0.87536   0.59068   0.00000  Uiso   1.00
H269   H     0.33876   0.87469   0.55221   0.00000  Uiso   1.00
O269   O     0.35572   0.87498   0.51773   0.00000  Uiso   1.00
O270   O     0.39227   0.87532   0.51772   0.00000  Uiso   1.00
H270   H     0.40924   0.87535   0.55220   0.00000  Uiso   1.00
H271   H     0.30048   0.87422   0.66117   0.00000  Uiso   1.00
O271   O     0.26605   0.87408   0.64555   0.00000  Uiso   1.00
O272   O     0.26608   0.87407   0.60625   0.00000  Uiso   1.00
H272   H     0.30051   0.87426   0.59067   0.00000  Uiso   1.00
Ni34   Ni    0.37401   0.87466   0.62592   0.00000  Uiso   1.00
C1089  C     0.12579   0.35400   0.69970   0.00000  Uiso   1.00
C1090  C     0.12587   0.36399   0.71678   0.00000  Uiso   1.00
C1091  C     0.12587   0.38406   0.71677   0.00000  Uiso   1.00
C1092  C     0.12576   0.39403   0.69967   0.00000  Uiso   1.00
C1093  C     0.12567   0.38358   0.68305   0.00000  Uiso   1.00
C1094  C     0.12568   0.36443   0.68305   0.00000  Uiso   1.00
C1095  C     0.12558   0.35897   0.66446   0.00000  Uiso   1.00
N273   N     0.12549   0.37401   0.65263   0.00000  Uiso   1.00
C1096  C     0.12555   0.38904   0.66446   0.00000  Uiso   1.00
N274   N     0.12545   0.40706   0.65901   0.00000  Uiso   1.00
C1097  C     0.12528   0.41251   0.64099   0.00000  Uiso   1.00
N275   N     0.12519   0.40068   0.62595   0.00000  Uiso   1.00
C1098  C     0.12500   0.41252   0.61091   0.00000  Uiso   1.00
C1099  C     0.12496   0.43110   0.61636   0.00000  Uiso   1.00
C1100  C     0.12514   0.43110   0.63555   0.00000  Uiso   1.00
N276   N     0.12519   0.37401   0.59927   0.00000  Uiso   1.00
C1101  C     0.12499   0.38905   0.58744   0.00000  Uiso   1.00
N277   N     0.12489   0.40707   0.59289   0.00000  Uiso   1.00
C1102  C     0.12493   0.38359   0.56886   0.00000  Uiso   1.00
C1103  C     0.12512   0.36441   0.56886   0.00000  Uiso   1.00
C1104  C     0.12527   0.35896   0.58745   0.00000  Uiso   1.00
C1105  C     0.12517   0.44780   0.64596   0.00000  Uiso   1.00
C1106  C     0.12501   0.46473   0.63572   0.00000  Uiso   1.00
C1107  C     0.12482   0.46473   0.61619   0.00000  Uiso   1.00
C1108  C     0.12479   0.44780   0.60595   0.00000  Uiso   1.00
C1109  C     0.12513   0.35399   0.55217   0.00000  Uiso   1.00
C1110  C     0.12496   0.36422   0.53523   0.00000  Uiso   1.00
C1111  C     0.12478   0.38376   0.53522   0.00000  Uiso   1.00
C1112  C     0.12476   0.39400   0.55216   0.00000  Uiso   1.00
N278   N     0.12549   0.34733   0.62596   0.00000  Uiso   1.00
C1113  C     0.12555   0.33550   0.61093   0.00000  Uiso   1.00
N279   N     0.12544   0.34094   0.59290   0.00000  Uiso   1.00
C1114  C     0.12567   0.31691   0.61639   0.00000  Uiso   1.00
C1115  C     0.12568   0.31691   0.63553   0.00000  Uiso   1.00
C1116  C     0.12558   0.33550   0.64099   0.00000  Uiso   1.00
C1117  C     0.12578   0.30026   0.64597   0.00000  Uiso   1.00
C1118  C     0.12587   0.28318   0.63598   0.00000  Uiso   1.00
C1119  C     0.12586   0.28319   0.61590   0.00000  Uiso   1.00
C1120  C     0.12576   0.30028   0.60593   0.00000  Uiso   1.00
N280   N     0.12561   0.34095   0.65902   0.00000  Uiso   1.00
H273   H     0.12579   0.33876   0.69948   0.00000  Uiso   1.00
O273   O     0.12595   0.35439   0.73391   0.00000  Uiso   1.00
O274   O     0.12595   0.39368   0.73388   0.00000  Uiso   1.00
H274   H     0.12574   0.40927   0.69944   0.00000  Uiso   1.00
H275   H     0.12531   0.44772   0.66119   0.00000  Uiso   1.00
O275   O     0.12502   0.48220   0.64423   0.00000  Uiso   1.00
O276   O     0.12469   0.48220   0.60768   0.00000  Uiso   1.00
H276   H     0.12465   0.44773   0.59071   0.00000  Uiso   1.00
H277   H     0.12527   0.33876   0.55225   0.00000  Uiso   1.00
O277   O     0.12496   0.35571   0.51776   0.00000  Uiso   1.00
O278   O     0.12463   0.39226   0.51776   0.00000  Uiso   1.00
H278   H     0.12462   0.40924   0.55223   0.00000  Uiso   1.00
H279   H     0.12578   0.30048   0.66120   0.00000  Uiso   1.00
O279   O     0.12594   0.26605   0.64558   0.00000  Uiso   1.00
O280   O     0.12594   0.26608   0.60628   0.00000  Uiso   1.00
H280   H     0.12575   0.30052   0.59070   0.00000  Uiso   1.00
Ni35   Ni    0.12534   0.37401   0.62595   0.00000  Uiso   1.00
C1121  C     0.60599   0.12583   0.69963   0.00000  Uiso   1.00
C1122  C     0.61596   0.12592   0.71673   0.00000  Uiso   1.00
C1123  C     0.63603   0.12592   0.71674   0.00000  Uiso   1.00
C1124  C     0.64602   0.12584   0.69965   0.00000  Uiso   1.00
C1125  C     0.63558   0.12575   0.68301   0.00000  Uiso   1.00
C1126  C     0.61644   0.12575   0.68300   0.00000  Uiso   1.00
C1127  C     0.61098   0.12563   0.66442   0.00000  Uiso   1.00
N281   N     0.62601   0.12558   0.65258   0.00000  Uiso   1.00
C1128  C     0.64105   0.12566   0.66442   0.00000  Uiso   1.00
N282   N     0.65907   0.12568   0.65897   0.00000  Uiso   1.00
C1129  C     0.66452   0.12564   0.64094   0.00000  Uiso   1.00
N283   N     0.65268   0.12556   0.62591   0.00000  Uiso   1.00
C1130  C     0.66452   0.12560   0.61088   0.00000  Uiso   1.00
C1131  C     0.68311   0.12571   0.61633   0.00000  Uiso   1.00
C1132  C     0.68311   0.12573   0.63548   0.00000  Uiso   1.00
N284   N     0.62601   0.12528   0.59923   0.00000  Uiso   1.00
C1133  C     0.64106   0.12535   0.58740   0.00000  Uiso   1.00
N285   N     0.65908   0.12551   0.59285   0.00000  Uiso   1.00
C1134  C     0.63561   0.12521   0.56881   0.00000  Uiso   1.00
C1135  C     0.61642   0.12504   0.56881   0.00000  Uiso   1.00
C1136  C     0.61097   0.12509   0.58740   0.00000  Uiso   1.00
C1137  C     0.69975   0.12582   0.64592   0.00000  Uiso   1.00
C1138  C     0.71684   0.12589   0.63593   0.00000  Uiso   1.00
C1139  C     0.71683   0.12588   0.61585   0.00000  Uiso   1.00
C1140  C     0.69974   0.12579   0.60588   0.00000  Uiso   1.00
C1141  C     0.60601   0.12488   0.55211   0.00000  Uiso   1.00
C1142  C     0.61625   0.12490   0.53518   0.00000  Uiso   1.00
C1143  C     0.63579   0.12507   0.53518   0.00000  Uiso   1.00
C1144  C     0.64603   0.12523   0.55212   0.00000  Uiso   1.00
N286   N     0.59933   0.12529   0.62591   0.00000  Uiso   1.00
C1145  C     0.58750   0.12510   0.61087   0.00000  Uiso   1.00
N287   N     0.59295   0.12500   0.59285   0.00000  Uiso   1.00
C1146  C     0.56892   0.12505   0.61632   0.00000  Uiso   1.00
C1147  C     0.56892   0.12523   0.63551   0.00000  Uiso   1.00
C1148  C     0.58750   0.12537   0.64095   0.00000  Uiso   1.00
C1149  C     0.55222   0.12525   0.64593   0.00000  Uiso   1.00
C1150  C     0.53529   0.12508   0.63569   0.00000  Uiso   1.00
C1151  C     0.53528   0.12490   0.61616   0.00000  Uiso   1.00
C1152  C     0.55222   0.12488   0.60591   0.00000  Uiso   1.00
N288   N     0.59296   0.12554   0.65897   0.00000  Uiso   1.00
H281   H     0.59075   0.12583   0.69940   0.00000  Uiso   1.00
O281   O     0.60633   0.12600   0.73383   0.00000  Uiso   1.00
O282   O     0.64563   0.12598   0.73386   0.00000  Uiso   1.00
H282   H     0.66125   0.12584   0.69943   0.00000  Uiso   1.00
H283   H     0.69953   0.12583   0.66115   0.00000  Uiso   1.00
O283   O     0.73396   0.12596   0.64553   0.00000  Uiso   1.00
O284   O     0.73394   0.12596   0.60623   0.00000  Uiso   1.00
H284   H     0.69951   0.12578   0.59065   0.00000  Uiso   1.00
H285   H     0.59078   0.12475   0.55219   0.00000  Uiso   1.00
O285   O     0.60775   0.12476   0.51772   0.00000  Uiso   1.00
O286   O     0.64430   0.12508   0.51771   0.00000  Uiso   1.00
H286   H     0.66126   0.12536   0.55219   0.00000  Uiso   1.00
H287   H     0.55230   0.12539   0.66116   0.00000  Uiso   1.00
O287   O     0.51782   0.12509   0.64420   0.00000  Uiso   1.00
O288   O     0.51782   0.12476   0.60765   0.00000  Uiso   1.00
H288   H     0.55229   0.12474   0.59068   0.00000  Uiso   1.00
Ni36   Ni    0.62601   0.12543   0.62591   0.00000  Uiso   1.00
C1153  C     0.87474   0.35398   0.44772   0.00000  Uiso   1.00
C1154  C     0.87489   0.36422   0.46465   0.00000  Uiso   1.00
C1155  C     0.87507   0.38376   0.46465   0.00000  Uiso   1.00
C1156  C     0.87509   0.39400   0.44772   0.00000  Uiso   1.00
C1157  C     0.87493   0.38358   0.43102   0.00000  Uiso   1.00
C1158  C     0.87476   0.36440   0.43102   0.00000  Uiso   1.00
C1159  C     0.87462   0.35895   0.41244   0.00000  Uiso   1.00
N289   N     0.87470   0.37399   0.40061   0.00000  Uiso   1.00
C1160  C     0.87489   0.38904   0.41244   0.00000  Uiso   1.00
N290   N     0.87499   0.40706   0.40699   0.00000  Uiso   1.00
C1161  C     0.87490   0.41251   0.38897   0.00000  Uiso   1.00
N291   N     0.87470   0.40067   0.37393   0.00000  Uiso   1.00
C1162  C     0.87463   0.41250   0.35888   0.00000  Uiso   1.00
C1163  C     0.87477   0.43109   0.36433   0.00000  Uiso   1.00
C1164  C     0.87495   0.43109   0.38351   0.00000  Uiso   1.00
N292   N     0.87442   0.37399   0.34726   0.00000  Uiso   1.00
C1165  C     0.87437   0.38903   0.33542   0.00000  Uiso   1.00
N293   N     0.87446   0.40705   0.34086   0.00000  Uiso   1.00
C1166  C     0.87426   0.38357   0.31684   0.00000  Uiso   1.00
C1167  C     0.87426   0.36442   0.31683   0.00000  Uiso   1.00
C1168  C     0.87435   0.35896   0.33542   0.00000  Uiso   1.00
C1169  C     0.87513   0.44779   0.39392   0.00000  Uiso   1.00
C1170  C     0.87511   0.46472   0.38368   0.00000  Uiso   1.00
C1171  C     0.87493   0.46472   0.36414   0.00000  Uiso   1.00
C1172  C     0.87475   0.44778   0.35391   0.00000  Uiso   1.00
C1173  C     0.87417   0.35399   0.30019   0.00000  Uiso   1.00
C1174  C     0.87410   0.36397   0.28310   0.00000  Uiso   1.00
C1175  C     0.87410   0.38405   0.28311   0.00000  Uiso   1.00
C1176  C     0.87418   0.39402   0.30020   0.00000  Uiso   1.00
N294   N     0.87443   0.34732   0.37393   0.00000  Uiso   1.00
C1177  C     0.87435   0.33549   0.35890   0.00000  Uiso   1.00
N295   N     0.87433   0.34093   0.34087   0.00000  Uiso   1.00
C1178  C     0.87427   0.31690   0.36436   0.00000  Uiso   1.00
C1179  C     0.87427   0.31690   0.38350   0.00000  Uiso   1.00
C1180  C     0.87437   0.33549   0.38896   0.00000  Uiso   1.00
C1181  C     0.87419   0.30027   0.39396   0.00000  Uiso   1.00
C1182  C     0.87410   0.28318   0.38398   0.00000  Uiso   1.00
C1183  C     0.87411   0.28317   0.36391   0.00000  Uiso   1.00
C1184  C     0.87418   0.30026   0.35392   0.00000  Uiso   1.00
N296   N     0.87446   0.34093   0.40699   0.00000  Uiso   1.00
H289   H     0.87460   0.33875   0.44764   0.00000  Uiso   1.00
O289   O     0.87488   0.35571   0.48212   0.00000  Uiso   1.00
O290   O     0.87521   0.39226   0.48212   0.00000  Uiso   1.00
H290   H     0.87523   0.40923   0.44764   0.00000  Uiso   1.00
H291   H     0.87527   0.44772   0.40915   0.00000  Uiso   1.00
O291   O     0.87526   0.48219   0.39218   0.00000  Uiso   1.00
O292   O     0.87491   0.48219   0.35563   0.00000  Uiso   1.00
H292   H     0.87461   0.44770   0.33867   0.00000  Uiso   1.00
H293   H     0.87417   0.33875   0.30041   0.00000  Uiso   1.00
O293   O     0.87404   0.35438   0.26598   0.00000  Uiso   1.00
O294   O     0.87402   0.39367   0.26600   0.00000  Uiso   1.00
H294   H     0.87419   0.40925   0.30044   0.00000  Uiso   1.00
H295   H     0.87419   0.30050   0.40919   0.00000  Uiso   1.00
O295   O     0.87403   0.26607   0.39360   0.00000  Uiso   1.00
O296   O     0.87405   0.26605   0.35431   0.00000  Uiso   1.00
H296   H     0.87418   0.30048   0.33869   0.00000  Uiso   1.00
Ni37   Ni    0.87456   0.37400   0.37393   0.00000  Uiso   1.00
C1185  C     0.60602   0.87521   0.44767   0.00000  Uiso   1.00
C1186  C     0.61626   0.87520   0.46460   0.00000  Uiso   1.00
C1187  C     0.63580   0.87503   0.46460   0.00000  Uiso   1.00
C1188  C     0.64603   0.87486   0.44766   0.00000  Uiso   1.00
C1189  C     0.63562   0.87487   0.43097   0.00000  Uiso   1.00
C1190  C     0.61643   0.87504   0.43097   0.00000  Uiso   1.00
C1191  C     0.61098   0.87499   0.41239   0.00000  Uiso   1.00
N297   N     0.62602   0.87479   0.40055   0.00000  Uiso   1.00
C1192  C     0.64106   0.87472   0.41238   0.00000  Uiso   1.00
N298   N     0.65908   0.87455   0.40693   0.00000  Uiso   1.00
C1193  C     0.66452   0.87444   0.38890   0.00000  Uiso   1.00
N299   N     0.65269   0.87449   0.37387   0.00000  Uiso   1.00
C1194  C     0.66452   0.87440   0.35884   0.00000  Uiso   1.00
C1195  C     0.68311   0.87430   0.36430   0.00000  Uiso   1.00
C1196  C     0.68311   0.87432   0.38344   0.00000  Uiso   1.00
N300   N     0.62602   0.87448   0.34720   0.00000  Uiso   1.00
C1197  C     0.64105   0.87439   0.33537   0.00000  Uiso   1.00
N301   N     0.65907   0.87436   0.34081   0.00000  Uiso   1.00
C1198  C     0.63559   0.87430   0.31678   0.00000  Uiso   1.00
C1199  C     0.61644   0.87431   0.31679   0.00000  Uiso   1.00
C1200  C     0.61098   0.87443   0.33537   0.00000  Uiso   1.00
C1201  C     0.69974   0.87424   0.39390   0.00000  Uiso   1.00
C1202  C     0.71683   0.87414   0.38392   0.00000  Uiso   1.00
C1203  C     0.71684   0.87412   0.36385   0.00000  Uiso   1.00
C1204  C     0.69976   0.87420   0.35386   0.00000  Uiso   1.00
C1205  C     0.60599   0.87423   0.30016   0.00000  Uiso   1.00
C1206  C     0.61595   0.87413   0.28306   0.00000  Uiso   1.00
C1207  C     0.63603   0.87412   0.28305   0.00000  Uiso   1.00
C1208  C     0.64602   0.87419   0.30013   0.00000  Uiso   1.00
N302   N     0.59934   0.87477   0.37388   0.00000  Uiso   1.00
C1209  C     0.58751   0.87469   0.35884   0.00000  Uiso   1.00
N303   N     0.59296   0.87452   0.34082   0.00000  Uiso   1.00
C1210  C     0.56892   0.87482   0.36428   0.00000  Uiso   1.00
C1211  C     0.56892   0.87500   0.38347   0.00000  Uiso   1.00
C1212  C     0.58750   0.87496   0.38892   0.00000  Uiso   1.00
C1213  C     0.55222   0.87516   0.39388   0.00000  Uiso   1.00
C1214  C     0.53529   0.87512   0.38364   0.00000  Uiso   1.00
C1215  C     0.53529   0.87494   0.36411   0.00000  Uiso   1.00
C1216  C     0.55223   0.87479   0.35387   0.00000  Uiso   1.00
N304   N     0.59295   0.87507   0.40694   0.00000  Uiso   1.00
H297   H     0.59079   0.87535   0.44760   0.00000  Uiso   1.00
O297   O     0.60776   0.87535   0.48207   0.00000  Uiso   1.00
O298   O     0.64431   0.87502   0.48207   0.00000  Uiso   1.00
H298   H     0.66127   0.87472   0.44758   0.00000  Uiso   1.00
H299   H     0.69951   0.87426   0.40913   0.00000  Uiso   1.00
O299   O     0.73394   0.87407   0.39354   0.00000  Uiso   1.00
O300   O     0.73397   0.87405   0.35425   0.00000  Uiso   1.00
H300   H     0.69954   0.87419   0.33863   0.00000  Uiso   1.00
H301   H     0.59075   0.87425   0.30039   0.00000  Uiso   1.00
O301   O     0.60633   0.87405   0.26596   0.00000  Uiso   1.00
O302   O     0.64562   0.87404   0.26592   0.00000  Uiso   1.00
H302   H     0.66125   0.87419   0.30035   0.00000  Uiso   1.00
H303   H     0.55230   0.87529   0.40912   0.00000  Uiso   1.00
O303   O     0.51782   0.87525   0.39215   0.00000  Uiso   1.00
O304   O     0.51782   0.87491   0.35560   0.00000  Uiso   1.00
H304   H     0.55230   0.87464   0.33864   0.00000  Uiso   1.00
Ni38   Ni    0.62601   0.87463   0.37388   0.00000  Uiso   1.00
C1217  C     0.12482   0.55222   0.39391   0.00000  Uiso   1.00
C1218  C     0.12484   0.53529   0.38367   0.00000  Uiso   1.00
C1219  C     0.12501   0.53529   0.36413   0.00000  Uiso   1.00
C1220  C     0.12516   0.55222   0.35389   0.00000  Uiso   1.00
C1221  C     0.12515   0.56892   0.36431   0.00000  Uiso   1.00
C1222  C     0.12499   0.56892   0.38350   0.00000  Uiso   1.00
C1223  C     0.12504   0.58750   0.38895   0.00000  Uiso   1.00
N305   N     0.12523   0.59933   0.37390   0.00000  Uiso   1.00
C1224  C     0.12529   0.58750   0.35886   0.00000  Uiso   1.00
N306   N     0.12545   0.59296   0.34084   0.00000  Uiso   1.00
C1225  C     0.12555   0.61098   0.33539   0.00000  Uiso   1.00
N307   N     0.12552   0.62601   0.34723   0.00000  Uiso   1.00
C1226  C     0.12561   0.64105   0.33539   0.00000  Uiso   1.00
C1227  C     0.12570   0.63558   0.31680   0.00000  Uiso   1.00
C1228  C     0.12567   0.61644   0.31681   0.00000  Uiso   1.00
N308   N     0.12553   0.65268   0.37390   0.00000  Uiso   1.00
C1229  C     0.12563   0.66452   0.35886   0.00000  Uiso   1.00
N309   N     0.12566   0.65907   0.34084   0.00000  Uiso   1.00
C1230  C     0.12572   0.68311   0.36432   0.00000  Uiso   1.00
C1231  C     0.12570   0.68310   0.38347   0.00000  Uiso   1.00
C1232  C     0.12558   0.66452   0.38893   0.00000  Uiso   1.00
C1233  C     0.12574   0.60599   0.30018   0.00000  Uiso   1.00
C1234  C     0.12584   0.61596   0.28308   0.00000  Uiso   1.00
C1235  C     0.12586   0.63604   0.28307   0.00000  Uiso   1.00
C1236  C     0.12580   0.64602   0.30016   0.00000  Uiso   1.00
C1237  C     0.12578   0.69974   0.39392   0.00000  Uiso   1.00
C1238  C     0.12588   0.71683   0.38394   0.00000  Uiso   1.00
C1239  C     0.12590   0.71684   0.36387   0.00000  Uiso   1.00
C1240  C     0.12583   0.69975   0.35388   0.00000  Uiso   1.00
N310   N     0.12523   0.62601   0.40058   0.00000  Uiso   1.00
C1241  C     0.12531   0.64106   0.41241   0.00000  Uiso   1.00
N311   N     0.12548   0.65908   0.40695   0.00000  Uiso   1.00
C1242  C     0.12516   0.63561   0.43099   0.00000  Uiso   1.00
C1243  C     0.12499   0.61643   0.43100   0.00000  Uiso   1.00
C1244  C     0.12504   0.61097   0.41241   0.00000  Uiso   1.00
C1245  C     0.12482   0.60601   0.44770   0.00000  Uiso   1.00
C1246  C     0.12484   0.61626   0.46463   0.00000  Uiso   1.00
C1247  C     0.12502   0.63579   0.46463   0.00000  Uiso   1.00
C1248  C     0.12518   0.64603   0.44769   0.00000  Uiso   1.00
N312   N     0.12495   0.59295   0.40697   0.00000  Uiso   1.00
H305   H     0.12469   0.55230   0.40914   0.00000  Uiso   1.00
O305   O     0.12469   0.51782   0.39218   0.00000  Uiso   1.00
O306   O     0.12501   0.51782   0.35563   0.00000  Uiso   1.00
H306   H     0.12530   0.55230   0.33866   0.00000  Uiso   1.00
H307   H     0.12571   0.59076   0.30041   0.00000  Uiso   1.00
O307   O     0.12590   0.60634   0.26598   0.00000  Uiso   1.00
O308   O     0.12593   0.64564   0.26595   0.00000  Uiso   1.00
H308   H     0.12582   0.66126   0.30038   0.00000  Uiso   1.00
H309   H     0.12576   0.69951   0.40915   0.00000  Uiso   1.00
O309   O     0.12595   0.73394   0.39356   0.00000  Uiso   1.00
O310   O     0.12597   0.73396   0.35427   0.00000  Uiso   1.00
H310   H     0.12584   0.69953   0.33865   0.00000  Uiso   1.00
H311   H     0.12469   0.59078   0.44763   0.00000  Uiso   1.00
O311   O     0.12470   0.60775   0.48210   0.00000  Uiso   1.00
O312   O     0.12503   0.64430   0.48209   0.00000  Uiso   1.00
H312   H     0.12532   0.66126   0.44761   0.00000  Uiso   1.00
Ni39   Ni    0.12538   0.62601   0.37390   0.00000  Uiso   1.00
C1249  C     0.35397   0.12520   0.44770   0.00000  Uiso   1.00
C1250  C     0.36421   0.12505   0.46464   0.00000  Uiso   1.00
C1251  C     0.38375   0.12488   0.46464   0.00000  Uiso   1.00
C1252  C     0.39399   0.12485   0.44770   0.00000  Uiso   1.00
C1253  C     0.38357   0.12501   0.43101   0.00000  Uiso   1.00
C1254  C     0.36439   0.12518   0.43101   0.00000  Uiso   1.00
C1255  C     0.35894   0.12531   0.41242   0.00000  Uiso   1.00
N313   N     0.37398   0.12524   0.40059   0.00000  Uiso   1.00
C1256  C     0.38903   0.12505   0.41242   0.00000  Uiso   1.00
N314   N     0.40705   0.12495   0.40697   0.00000  Uiso   1.00
C1257  C     0.41249   0.12503   0.38895   0.00000  Uiso   1.00
N315   N     0.40066   0.12522   0.37391   0.00000  Uiso   1.00
C1258  C     0.41249   0.12529   0.35886   0.00000  Uiso   1.00
C1259  C     0.43107   0.12515   0.36431   0.00000  Uiso   1.00
C1260  C     0.43108   0.12498   0.38349   0.00000  Uiso   1.00
N316   N     0.37398   0.12552   0.34724   0.00000  Uiso   1.00
C1261  C     0.38901   0.12556   0.33540   0.00000  Uiso   1.00
N317   N     0.40704   0.12546   0.34084   0.00000  Uiso   1.00
C1262  C     0.38355   0.12568   0.31682   0.00000  Uiso   1.00
C1263  C     0.36441   0.12569   0.31681   0.00000  Uiso   1.00
C1264  C     0.35894   0.12560   0.33540   0.00000  Uiso   1.00
C1265  C     0.44778   0.12481   0.39390   0.00000  Uiso   1.00
C1266  C     0.46471   0.12483   0.38366   0.00000  Uiso   1.00
C1267  C     0.46471   0.12500   0.36412   0.00000  Uiso   1.00
C1268  C     0.44777   0.12516   0.35389   0.00000  Uiso   1.00
C1269  C     0.35397   0.12579   0.30017   0.00000  Uiso   1.00
C1270  C     0.36395   0.12587   0.28308   0.00000  Uiso   1.00
C1271  C     0.38403   0.12586   0.28309   0.00000  Uiso   1.00
C1272  C     0.39400   0.12576   0.30019   0.00000  Uiso   1.00
N318   N     0.34731   0.12552   0.37391   0.00000  Uiso   1.00
C1273  C     0.33547   0.12560   0.35888   0.00000  Uiso   1.00
N319   N     0.34092   0.12564   0.34086   0.00000  Uiso   1.00
C1274  C     0.31688   0.12569   0.36435   0.00000  Uiso   1.00
C1275  C     0.31689   0.12568   0.38349   0.00000  Uiso   1.00
C1276  C     0.33548   0.12556   0.38895   0.00000  Uiso   1.00
C1277  C     0.30026   0.12576   0.39395   0.00000  Uiso   1.00
C1278  C     0.28317   0.12586   0.38398   0.00000  Uiso   1.00
C1279  C     0.28315   0.12587   0.36390   0.00000  Uiso   1.00
C1280  C     0.30024   0.12579   0.35391   0.00000  Uiso   1.00
N320   N     0.34092   0.12547   0.40697   0.00000  Uiso   1.00
H313   H     0.33874   0.12534   0.44763   0.00000  Uiso   1.00
O313   O     0.35570   0.12506   0.48211   0.00000  Uiso   1.00
O314   O     0.39225   0.12474   0.48210   0.00000  Uiso   1.00
H314   H     0.40922   0.12472   0.44763   0.00000  Uiso   1.00
H315   H     0.44770   0.12468   0.40914   0.00000  Uiso   1.00
O315   O     0.48218   0.12469   0.39216   0.00000  Uiso   1.00
O316   O     0.48217   0.12500   0.35561   0.00000  Uiso   1.00
H316   H     0.44769   0.12529   0.33865   0.00000  Uiso   1.00
H317   H     0.33873   0.12580   0.30039   0.00000  Uiso   1.00
O317   O     0.35436   0.12593   0.26596   0.00000  Uiso   1.00
O318   O     0.39365   0.12593   0.26598   0.00000  Uiso   1.00
H318   H     0.40924   0.12574   0.30041   0.00000  Uiso   1.00
H319   H     0.30049   0.12575   0.40918   0.00000  Uiso   1.00
O319   O     0.26606   0.12593   0.39360   0.00000  Uiso   1.00
O320   O     0.26603   0.12594   0.35431   0.00000  Uiso   1.00
H320   H     0.30046   0.12580   0.33868   0.00000  Uiso   1.00
Ni40   Ni    0.37398   0.12537   0.37391   0.00000  Uiso   1.00
C1281  C     0.60600   0.87430   0.69962   0.00000  Uiso   1.00
C1282  C     0.61597   0.87419   0.71671   0.00000  Uiso   1.00
C1283  C     0.63604   0.87417   0.71672   0.00000  Uiso   1.00
C1284  C     0.64603   0.87425   0.69963   0.00000  Uiso   1.00
C1285  C     0.63560   0.87435   0.68299   0.00000  Uiso   1.00
C1286  C     0.61645   0.87438   0.68299   0.00000  Uiso   1.00
C1287  C     0.61099   0.87450   0.66440   0.00000  Uiso   1.00
N321   N     0.62602   0.87454   0.65257   0.00000  Uiso   1.00
C1288  C     0.64106   0.87444   0.66440   0.00000  Uiso   1.00
N322   N     0.65908   0.87440   0.65895   0.00000  Uiso   1.00
C1289  C     0.66453   0.87443   0.64093   0.00000  Uiso   1.00
N323   N     0.65270   0.87453   0.62590   0.00000  Uiso   1.00
C1290  C     0.66453   0.87448   0.61086   0.00000  Uiso   1.00
C1291  C     0.68312   0.87435   0.61632   0.00000  Uiso   1.00
C1292  C     0.68312   0.87433   0.63547   0.00000  Uiso   1.00
N324   N     0.62602   0.87483   0.59922   0.00000  Uiso   1.00
C1293  C     0.64107   0.87475   0.58739   0.00000  Uiso   1.00
N325   N     0.65909   0.87458   0.59284   0.00000  Uiso   1.00
C1294  C     0.63562   0.87490   0.56880   0.00000  Uiso   1.00
C1295  C     0.61643   0.87507   0.56880   0.00000  Uiso   1.00
C1296  C     0.61098   0.87503   0.58739   0.00000  Uiso   1.00
C1297  C     0.69976   0.87423   0.64590   0.00000  Uiso   1.00
C1298  C     0.71685   0.87415   0.63591   0.00000  Uiso   1.00
C1299  C     0.71684   0.87416   0.61584   0.00000  Uiso   1.00
C1300  C     0.69975   0.87427   0.60587   0.00000  Uiso   1.00
C1301  C     0.60602   0.87524   0.55210   0.00000  Uiso   1.00
C1302  C     0.61626   0.87522   0.53517   0.00000  Uiso   1.00
C1303  C     0.63580   0.87504   0.53517   0.00000  Uiso   1.00
C1304  C     0.64604   0.87488   0.55210   0.00000  Uiso   1.00
N326   N     0.59934   0.87484   0.62590   0.00000  Uiso   1.00
C1305  C     0.58751   0.87503   0.61086   0.00000  Uiso   1.00
N327   N     0.59296   0.87512   0.59283   0.00000  Uiso   1.00
C1306  C     0.56893   0.87508   0.61631   0.00000  Uiso   1.00
C1307  C     0.56893   0.87491   0.63550   0.00000  Uiso   1.00
C1308  C     0.58751   0.87476   0.64094   0.00000  Uiso   1.00
C1309  C     0.55223   0.87489   0.64592   0.00000  Uiso   1.00
C1310  C     0.53530   0.87504   0.63568   0.00000  Uiso   1.00
C1311  C     0.53529   0.87522   0.61614   0.00000  Uiso   1.00
C1312  C     0.55223   0.87524   0.60590   0.00000  Uiso   1.00
N328   N     0.59297   0.87460   0.65896   0.00000  Uiso   1.00
H321   H     0.59076   0.87432   0.69939   0.00000  Uiso   1.00
O321   O     0.60635   0.87412   0.73382   0.00000  Uiso   1.00
O322   O     0.64564   0.87409   0.73385   0.00000  Uiso   1.00
H322   H     0.66127   0.87423   0.69942   0.00000  Uiso   1.00
H323   H     0.69954   0.87422   0.66114   0.00000  Uiso   1.00
O323   O     0.73397   0.87407   0.64551   0.00000  Uiso   1.00
O324   O     0.73395   0.87408   0.60621   0.00000  Uiso   1.00
H324   H     0.69951   0.87428   0.59063   0.00000  Uiso   1.00
H325   H     0.59079   0.87537   0.55218   0.00000  Uiso   1.00
O325   O     0.60776   0.87536   0.51770   0.00000  Uiso   1.00
O326   O     0.64431   0.87503   0.51770   0.00000  Uiso   1.00
H326   H     0.66127   0.87474   0.55218   0.00000  Uiso   1.00
H327   H     0.55231   0.87475   0.66115   0.00000  Uiso   1.00
O327   O     0.51783   0.87503   0.64419   0.00000  Uiso   1.00
O328   O     0.51783   0.87535   0.60764   0.00000  Uiso   1.00
H328   H     0.55230   0.87537   0.59067   0.00000  Uiso   1.00
Ni41   Ni    0.62602   0.87468   0.62589   0.00000  Uiso   1.00
C1313  C     0.60600   0.12485   0.44769   0.00000  Uiso   1.00
C1314  C     0.61625   0.12488   0.46462   0.00000  Uiso   1.00
C1315  C     0.63578   0.12505   0.46461   0.00000  Uiso   1.00
C1316  C     0.64602   0.12520   0.44768   0.00000  Uiso   1.00
C1317  C     0.63560   0.12518   0.43098   0.00000  Uiso   1.00
C1318  C     0.61642   0.12500   0.43098   0.00000  Uiso   1.00
C1319  C     0.61096   0.12504   0.41240   0.00000  Uiso   1.00
N329   N     0.62600   0.12523   0.40057   0.00000  Uiso   1.00
C1320  C     0.64105   0.12531   0.41239   0.00000  Uiso   1.00
N330   N     0.65907   0.12547   0.40694   0.00000  Uiso   1.00
C1321  C     0.66451   0.12556   0.38892   0.00000  Uiso   1.00
N331   N     0.65267   0.12551   0.37388   0.00000  Uiso   1.00
C1322  C     0.66451   0.12559   0.35885   0.00000  Uiso   1.00
C1323  C     0.68310   0.12568   0.36431   0.00000  Uiso   1.00
C1324  C     0.68309   0.12567   0.38346   0.00000  Uiso   1.00
N332   N     0.62600   0.12551   0.34722   0.00000  Uiso   1.00
C1325  C     0.64103   0.12559   0.33538   0.00000  Uiso   1.00
N333   N     0.65906   0.12562   0.34082   0.00000  Uiso   1.00
C1326  C     0.63557   0.12568   0.31679   0.00000  Uiso   1.00
C1327  C     0.61643   0.12567   0.31680   0.00000  Uiso   1.00
C1328  C     0.61097   0.12555   0.33538   0.00000  Uiso   1.00
C1329  C     0.69972   0.12575   0.39391   0.00000  Uiso   1.00
C1330  C     0.71682   0.12585   0.38393   0.00000  Uiso   1.00
C1331  C     0.71683   0.12586   0.36386   0.00000  Uiso   1.00
C1332  C     0.69974   0.12578   0.35387   0.00000  Uiso   1.00
C1333  C     0.60597   0.12575   0.30017   0.00000  Uiso   1.00
C1334  C     0.61594   0.12585   0.28307   0.00000  Uiso   1.00
C1335  C     0.63602   0.12586   0.28306   0.00000  Uiso   1.00
C1336  C     0.64601   0.12578   0.30015   0.00000  Uiso   1.00
N334   N     0.59932   0.12522   0.37389   0.00000  Uiso   1.00
C1337  C     0.58749   0.12529   0.35885   0.00000  Uiso   1.00
N335   N     0.59295   0.12545   0.34083   0.00000  Uiso   1.00
C1338  C     0.56891   0.12515   0.36430   0.00000  Uiso   1.00
C1339  C     0.56891   0.12498   0.38348   0.00000  Uiso   1.00
C1340  C     0.58749   0.12503   0.38893   0.00000  Uiso   1.00
C1341  C     0.55221   0.12481   0.39390   0.00000  Uiso   1.00
C1342  C     0.53527   0.12483   0.38366   0.00000  Uiso   1.00
C1343  C     0.53528   0.12500   0.36412   0.00000  Uiso   1.00
C1344  C     0.55221   0.12516   0.35388   0.00000  Uiso   1.00
N336   N     0.59294   0.12494   0.40696   0.00000  Uiso   1.00
H329   H     0.59077   0.12472   0.44761   0.00000  Uiso   1.00
O329   O     0.60775   0.12475   0.48209   0.00000  Uiso   1.00
O330   O     0.64429   0.12507   0.48208   0.00000  Uiso   1.00
H330   H     0.66125   0.12534   0.44760   0.00000  Uiso   1.00
H331   H     0.69949   0.12574   0.40914   0.00000  Uiso   1.00
O331   O     0.73393   0.12593   0.39355   0.00000  Uiso   1.00
O332   O     0.73395   0.12593   0.35426   0.00000  Uiso   1.00
H332   H     0.69952   0.12578   0.33864   0.00000  Uiso   1.00
H333   H     0.59074   0.12574   0.30040   0.00000  Uiso   1.00
O333   O     0.60632   0.12593   0.26597   0.00000  Uiso   1.00
O334   O     0.64561   0.12592   0.26593   0.00000  Uiso   1.00
H334   H     0.66124   0.12578   0.30036   0.00000  Uiso   1.00
H335   H     0.55228   0.12468   0.40913   0.00000  Uiso   1.00
O335   O     0.51781   0.12468   0.39216   0.00000  Uiso   1.00
O336   O     0.51781   0.12500   0.35561   0.00000  Uiso   1.00
H336   H     0.55229   0.12529   0.33865   0.00000  Uiso   1.00
Ni42   Ni    0.62600   0.12537   0.37389   0.00000  Uiso   1.00
C1345  C     0.87517   0.55222   0.39391   0.00000  Uiso   1.00
C1346  C     0.87514   0.53529   0.38367   0.00000  Uiso   1.00
C1347  C     0.87495   0.53529   0.36413   0.00000  Uiso   1.00
C1348  C     0.87479   0.55222   0.35389   0.00000  Uiso   1.00
C1349  C     0.87482   0.56892   0.36431   0.00000  Uiso   1.00
C1350  C     0.87501   0.56892   0.38349   0.00000  Uiso   1.00
C1351  C     0.87497   0.58750   0.38894   0.00000  Uiso   1.00
N337   N     0.87477   0.59933   0.37390   0.00000  Uiso   1.00
C1352  C     0.87468   0.58750   0.35886   0.00000  Uiso   1.00
N338   N     0.87451   0.59296   0.34084   0.00000  Uiso   1.00
C1353  C     0.87441   0.61098   0.33539   0.00000  Uiso   1.00
N339   N     0.87447   0.62601   0.34722   0.00000  Uiso   1.00
C1354  C     0.87438   0.64104   0.33539   0.00000  Uiso   1.00
C1355  C     0.87428   0.63558   0.31680   0.00000  Uiso   1.00
C1356  C     0.87429   0.61644   0.31680   0.00000  Uiso   1.00
N340   N     0.87449   0.65269   0.37389   0.00000  Uiso   1.00
C1357  C     0.87440   0.66452   0.35886   0.00000  Uiso   1.00
N341   N     0.87436   0.65907   0.34083   0.00000  Uiso   1.00
C1358  C     0.87431   0.68311   0.36432   0.00000  Uiso   1.00
C1359  C     0.87433   0.68311   0.38346   0.00000  Uiso   1.00
C1360  C     0.87445   0.66452   0.38892   0.00000  Uiso   1.00
C1361  C     0.87420   0.60599   0.30017   0.00000  Uiso   1.00
C1362  C     0.87410   0.61596   0.28308   0.00000  Uiso   1.00
C1363  C     0.87410   0.63603   0.28307   0.00000  Uiso   1.00
C1364  C     0.87418   0.64602   0.30016   0.00000  Uiso   1.00
C1365  C     0.87426   0.69974   0.39391   0.00000  Uiso   1.00
C1366  C     0.87416   0.71683   0.38393   0.00000  Uiso   1.00
C1367  C     0.87414   0.71684   0.36386   0.00000  Uiso   1.00
C1368  C     0.87422   0.69975   0.35387   0.00000  Uiso   1.00
N342   N     0.87478   0.62602   0.40057   0.00000  Uiso   1.00
C1369  C     0.87471   0.64106   0.41240   0.00000  Uiso   1.00
N343   N     0.87455   0.65908   0.40695   0.00000  Uiso   1.00
C1370  C     0.87486   0.63562   0.43099   0.00000  Uiso   1.00
C1371  C     0.87503   0.61643   0.43099   0.00000  Uiso   1.00
C1372  C     0.87498   0.61098   0.41241   0.00000  Uiso   1.00
C1373  C     0.87520   0.60602   0.44769   0.00000  Uiso   1.00
C1374  C     0.87518   0.61626   0.46462   0.00000  Uiso   1.00
C1375  C     0.87500   0.63580   0.46462   0.00000  Uiso   1.00
C1376  C     0.87484   0.64603   0.44768   0.00000  Uiso   1.00
N344   N     0.87507   0.59295   0.40696   0.00000  Uiso   1.00
H337   H     0.87532   0.55230   0.40914   0.00000  Uiso   1.00
O337   O     0.87528   0.51782   0.39217   0.00000  Uiso   1.00
O338   O     0.87493   0.51782   0.35563   0.00000  Uiso   1.00
H338   H     0.87464   0.55230   0.33866   0.00000  Uiso   1.00
H339   H     0.87421   0.59075   0.30041   0.00000  Uiso   1.00
O339   O     0.87403   0.60634   0.26597   0.00000  Uiso   1.00
O340   O     0.87404   0.64563   0.26595   0.00000  Uiso   1.00
H340   H     0.87419   0.66125   0.30037   0.00000  Uiso   1.00
H341   H     0.87428   0.69951   0.40914   0.00000  Uiso   1.00
O341   O     0.87409   0.73394   0.39355   0.00000  Uiso   1.00
O342   O     0.87407   0.73396   0.35425   0.00000  Uiso   1.00
H342   H     0.87420   0.69953   0.33864   0.00000  Uiso   1.00
H343   H     0.87533   0.59079   0.44762   0.00000  Uiso   1.00
O343   O     0.87532   0.60776   0.48209   0.00000  Uiso   1.00
O344   O     0.87499   0.64431   0.48209   0.00000  Uiso   1.00
H344   H     0.87470   0.66127   0.44760   0.00000  Uiso   1.00
Ni43   Ni    0.87463   0.62601   0.37390   0.00000  Uiso   1.00
C1377  C     0.35399   0.87480   0.44769   0.00000  Uiso   1.00
C1378  C     0.36422   0.87497   0.46463   0.00000  Uiso   1.00
C1379  C     0.38376   0.87516   0.46463   0.00000  Uiso   1.00
C1380  C     0.39400   0.87518   0.44769   0.00000  Uiso   1.00
C1381  C     0.38359   0.87500   0.43099   0.00000  Uiso   1.00
C1382  C     0.36440   0.87482   0.43099   0.00000  Uiso   1.00
C1383  C     0.35896   0.87467   0.41241   0.00000  Uiso   1.00
N345   N     0.37400   0.87475   0.40058   0.00000  Uiso   1.00
C1384  C     0.38904   0.87495   0.41241   0.00000  Uiso   1.00
N346   N     0.40706   0.87504   0.40696   0.00000  Uiso   1.00
C1385  C     0.41251   0.87494   0.38894   0.00000  Uiso   1.00
N347   N     0.40067   0.87474   0.37390   0.00000  Uiso   1.00
C1386  C     0.41250   0.87466   0.35885   0.00000  Uiso   1.00
C1387  C     0.43109   0.87480   0.36429   0.00000  Uiso   1.00
C1388  C     0.43109   0.87498   0.38348   0.00000  Uiso   1.00
N348   N     0.37399   0.87445   0.34723   0.00000  Uiso   1.00
C1389  C     0.38902   0.87441   0.33539   0.00000  Uiso   1.00
N349   N     0.40705   0.87450   0.34083   0.00000  Uiso   1.00
C1390  C     0.38357   0.87429   0.31680   0.00000  Uiso   1.00
C1391  C     0.36442   0.87428   0.31680   0.00000  Uiso   1.00
C1392  C     0.35896   0.87437   0.33539   0.00000  Uiso   1.00
C1393  C     0.44779   0.87514   0.39389   0.00000  Uiso   1.00
C1394  C     0.46472   0.87511   0.38365   0.00000  Uiso   1.00
C1395  C     0.46472   0.87493   0.36411   0.00000  Uiso   1.00
C1396  C     0.44779   0.87477   0.35387   0.00000  Uiso   1.00
C1397  C     0.35398   0.87419   0.30016   0.00000  Uiso   1.00
C1398  C     0.36397   0.87411   0.28307   0.00000  Uiso   1.00
C1399  C     0.38404   0.87412   0.28308   0.00000  Uiso   1.00
C1400  C     0.39401   0.87421   0.30017   0.00000  Uiso   1.00
N350   N     0.34732   0.87445   0.37390   0.00000  Uiso   1.00
C1401  C     0.33549   0.87437   0.35887   0.00000  Uiso   1.00
N351   N     0.34093   0.87434   0.34084   0.00000  Uiso   1.00
C1402  C     0.31690   0.87427   0.36433   0.00000  Uiso   1.00
C1403  C     0.31690   0.87428   0.38348   0.00000  Uiso   1.00
C1404  C     0.33549   0.87440   0.38893   0.00000  Uiso   1.00
C1405  C     0.30028   0.87420   0.39393   0.00000  Uiso   1.00
C1406  C     0.28318   0.87411   0.38396   0.00000  Uiso   1.00
C1407  C     0.28317   0.87410   0.36389   0.00000  Uiso   1.00
C1408  C     0.30026   0.87418   0.35390   0.00000  Uiso   1.00
N352   N     0.34094   0.87450   0.40696   0.00000  Uiso   1.00
H345   H     0.33875   0.87466   0.44762   0.00000  Uiso   1.00
O345   O     0.35572   0.87496   0.48209   0.00000  Uiso   1.00
O346   O     0.39226   0.87531   0.48209   0.00000  Uiso   1.00
H346   H     0.40923   0.87531   0.44762   0.00000  Uiso   1.00
H347   H     0.44772   0.87528   0.40912   0.00000  Uiso   1.00
O347   O     0.48219   0.87525   0.39215   0.00000  Uiso   1.00
O348   O     0.48219   0.87491   0.35560   0.00000  Uiso   1.00
H348   H     0.44771   0.87463   0.33864   0.00000  Uiso   1.00
H349   H     0.33875   0.87419   0.30039   0.00000  Uiso   1.00
O349   O     0.35436   0.87405   0.26595   0.00000  Uiso   1.00
O350   O     0.39366   0.87404   0.26597   0.00000  Uiso   1.00
H350   H     0.40925   0.87422   0.30040   0.00000  Uiso   1.00
H351   H     0.30051   0.87422   0.40917   0.00000  Uiso   1.00
O351   O     0.26607   0.87404   0.39359   0.00000  Uiso   1.00
O352   O     0.26605   0.87404   0.35429   0.00000  Uiso   1.00
H352   H     0.30047   0.87417   0.33867   0.00000  Uiso   1.00
Ni44   Ni    0.37400   0.87460   0.37390   0.00000  Uiso   1.00
C1409  C     0.12511   0.35398   0.44773   0.00000  Uiso   1.00
C1410  C     0.12494   0.36422   0.46466   0.00000  Uiso   1.00
C1411  C     0.12476   0.38375   0.46466   0.00000  Uiso   1.00
C1412  C     0.12475   0.39400   0.44773   0.00000  Uiso   1.00
C1413  C     0.12492   0.38358   0.43103   0.00000  Uiso   1.00
C1414  C     0.12509   0.36440   0.43103   0.00000  Uiso   1.00
C1415  C     0.12524   0.35895   0.41244   0.00000  Uiso   1.00
N353   N     0.12517   0.37399   0.40061   0.00000  Uiso   1.00
C1416  C     0.12498   0.38903   0.41244   0.00000  Uiso   1.00
N354   N     0.12489   0.40706   0.40700   0.00000  Uiso   1.00
C1417  C     0.12499   0.41250   0.38897   0.00000  Uiso   1.00
N355   N     0.12519   0.40067   0.37393   0.00000  Uiso   1.00
C1418  C     0.12526   0.41250   0.35889   0.00000  Uiso   1.00
C1419  C     0.12513   0.43109   0.36433   0.00000  Uiso   1.00
C1420  C     0.12495   0.43109   0.38352   0.00000  Uiso   1.00
N356   N     0.12548   0.37399   0.34726   0.00000  Uiso   1.00
C1421  C     0.12553   0.38902   0.33543   0.00000  Uiso   1.00
N357   N     0.12543   0.40705   0.34087   0.00000  Uiso   1.00
C1422  C     0.12565   0.38357   0.31684   0.00000  Uiso   1.00
C1423  C     0.12567   0.36442   0.31684   0.00000  Uiso   1.00
C1424  C     0.12557   0.35896   0.33543   0.00000  Uiso   1.00
C1425  C     0.12480   0.44779   0.39393   0.00000  Uiso   1.00
C1426  C     0.12482   0.46472   0.38368   0.00000  Uiso   1.00
C1427  C     0.12499   0.46472   0.36415   0.00000  Uiso   1.00
C1428  C     0.12515   0.44778   0.35391   0.00000  Uiso   1.00
C1429  C     0.12577   0.35398   0.30020   0.00000  Uiso   1.00
C1430  C     0.12585   0.36397   0.28311   0.00000  Uiso   1.00
C1431  C     0.12584   0.38405   0.28312   0.00000  Uiso   1.00
C1432  C     0.12573   0.39402   0.30021   0.00000  Uiso   1.00
N358   N     0.12548   0.34732   0.37394   0.00000  Uiso   1.00
C1433  C     0.12558   0.33548   0.35890   0.00000  Uiso   1.00
N359   N     0.12562   0.34093   0.34088   0.00000  Uiso   1.00
C1434  C     0.12568   0.31690   0.36437   0.00000  Uiso   1.00
C1435  C     0.12565   0.31690   0.38351   0.00000  Uiso   1.00
C1436  C     0.12553   0.33548   0.38897   0.00000  Uiso   1.00
C1437  C     0.12573   0.30027   0.39396   0.00000  Uiso   1.00
C1438  C     0.12584   0.28317   0.38399   0.00000  Uiso   1.00
C1439  C     0.12586   0.28317   0.36392   0.00000  Uiso   1.00
C1440  C     0.12579   0.30025   0.35393   0.00000  Uiso   1.00
N360   N     0.12542   0.34093   0.40699   0.00000  Uiso   1.00
H353   H     0.12525   0.33875   0.44765   0.00000  Uiso   1.00
O353   O     0.12495   0.35571   0.48213   0.00000  Uiso   1.00
O354   O     0.12462   0.39226   0.48213   0.00000  Uiso   1.00
H354   H     0.12461   0.40923   0.44765   0.00000  Uiso   1.00
H355   H     0.12466   0.44772   0.40916   0.00000  Uiso   1.00
O355   O     0.12469   0.48219   0.39219   0.00000  Uiso   1.00
O356   O     0.12500   0.48218   0.35564   0.00000  Uiso   1.00
H356   H     0.12528   0.44770   0.33868   0.00000  Uiso   1.00
H357   H     0.12578   0.33875   0.30041   0.00000  Uiso   1.00
O357   O     0.12592   0.35438   0.26598   0.00000  Uiso   1.00
O358   O     0.12591   0.39367   0.26601   0.00000  Uiso   1.00
H358   H     0.12571   0.40925   0.30044   0.00000  Uiso   1.00
H359   H     0.12571   0.30050   0.40920   0.00000  Uiso   1.00
O359   O     0.12591   0.26607   0.39361   0.00000  Uiso   1.00
O360   O     0.12594   0.26604   0.35432   0.00000  Uiso   1.00
H360   H     0.12580   0.30047   0.33869   0.00000  Uiso   1.00
Ni45   Ni    0.12533   0.37399   0.37394   0.00000  Uiso   1.00
C1441  C     0.35398   0.12585   0.69967   0.00000  Uiso   1.00
C1442  C     0.36397   0.12592   0.71676   0.00000  Uiso   1.00
C1443  C     0.38405   0.12591   0.71675   0.00000  Uiso   1.00
C1444  C     0.39402   0.12582   0.69965   0.00000  Uiso   1.00
C1445  C     0.38357   0.12574   0.68302   0.00000  Uiso   1.00
C1446  C     0.36442   0.12575   0.68303   0.00000  Uiso   1.00
C1447  C     0.35896   0.12566   0.66444   0.00000  Uiso   1.00
N361   N     0.37399   0.12557   0.65260   0.00000  Uiso   1.00
C1448  C     0.38903   0.12562   0.66444   0.00000  Uiso   1.00
N362   N     0.40705   0.12552   0.65899   0.00000  Uiso   1.00
C1449  C     0.41250   0.12535   0.64097   0.00000  Uiso   1.00
N363   N     0.40067   0.12527   0.62593   0.00000  Uiso   1.00
C1450  C     0.41250   0.12507   0.61089   0.00000  Uiso   1.00
C1451  C     0.43109   0.12503   0.61634   0.00000  Uiso   1.00
C1452  C     0.43109   0.12521   0.63552   0.00000  Uiso   1.00
N364   N     0.37399   0.12526   0.59925   0.00000  Uiso   1.00
C1453  C     0.38903   0.12507   0.58742   0.00000  Uiso   1.00
N365   N     0.40705   0.12498   0.59286   0.00000  Uiso   1.00
C1454  C     0.38358   0.12502   0.56883   0.00000  Uiso   1.00
C1455  C     0.36439   0.12519   0.56884   0.00000  Uiso   1.00
C1456  C     0.35895   0.12533   0.58742   0.00000  Uiso   1.00
C1457  C     0.44778   0.12523   0.64594   0.00000  Uiso   1.00
C1458  C     0.46472   0.12507   0.63570   0.00000  Uiso   1.00
C1459  C     0.46472   0.12489   0.61616   0.00000  Uiso   1.00
C1460  C     0.44779   0.12486   0.60592   0.00000  Uiso   1.00
C1461  C     0.35397   0.12521   0.55214   0.00000  Uiso   1.00
C1462  C     0.36421   0.12505   0.53521   0.00000  Uiso   1.00
C1463  C     0.38375   0.12488   0.53520   0.00000  Uiso   1.00
C1464  C     0.39399   0.12486   0.55213   0.00000  Uiso   1.00
N366   N     0.34732   0.12555   0.62593   0.00000  Uiso   1.00
C1465  C     0.33548   0.12559   0.61090   0.00000  Uiso   1.00
N367   N     0.34093   0.12549   0.59288   0.00000  Uiso   1.00
C1466  C     0.31690   0.12570   0.61636   0.00000  Uiso   1.00
C1467  C     0.31690   0.12573   0.63551   0.00000  Uiso   1.00
C1468  C     0.33548   0.12564   0.64097   0.00000  Uiso   1.00
C1469  C     0.30026   0.12582   0.64595   0.00000  Uiso   1.00
C1470  C     0.28317   0.12589   0.63597   0.00000  Uiso   1.00
C1471  C     0.28317   0.12587   0.61589   0.00000  Uiso   1.00
C1472  C     0.30027   0.12578   0.60592   0.00000  Uiso   1.00
N368   N     0.34094   0.12568   0.65899   0.00000  Uiso   1.00
H361   H     0.33875   0.12586   0.69945   0.00000  Uiso   1.00
O361   O     0.35437   0.12599   0.73388   0.00000  Uiso   1.00
O362   O     0.39367   0.12598   0.73385   0.00000  Uiso   1.00
H362   H     0.40925   0.12580   0.69942   0.00000  Uiso   1.00
H363   H     0.44771   0.12537   0.66117   0.00000  Uiso   1.00
O363   O     0.48219   0.12508   0.64421   0.00000  Uiso   1.00
O364   O     0.48219   0.12475   0.60766   0.00000  Uiso   1.00
H364   H     0.44771   0.12473   0.59069   0.00000  Uiso   1.00
H365   H     0.33874   0.12534   0.55222   0.00000  Uiso   1.00
O365   O     0.35570   0.12506   0.51774   0.00000  Uiso   1.00
O366   O     0.39225   0.12474   0.51773   0.00000  Uiso   1.00
H366   H     0.40922   0.12473   0.55221   0.00000  Uiso   1.00
H367   H     0.30048   0.12583   0.66118   0.00000  Uiso   1.00
O367   O     0.26605   0.12595   0.64557   0.00000  Uiso   1.00
O368   O     0.26607   0.12594   0.60627   0.00000  Uiso   1.00
H368   H     0.30050   0.12576   0.59068   0.00000  Uiso   1.00
Ni46   Ni    0.37399   0.12541   0.62593   0.00000  Uiso   1.00
C1473  C     0.87422   0.35400   0.69969   0.00000  Uiso   1.00
C1474  C     0.87414   0.36399   0.71678   0.00000  Uiso   1.00
C1475  C     0.87416   0.38406   0.71676   0.00000  Uiso   1.00
C1476  C     0.87426   0.39404   0.69967   0.00000  Uiso   1.00
C1477  C     0.87434   0.38358   0.68304   0.00000  Uiso   1.00
C1478  C     0.87432   0.36444   0.68305   0.00000  Uiso   1.00
C1479  C     0.87441   0.35898   0.66446   0.00000  Uiso   1.00
N369   N     0.87450   0.37401   0.65262   0.00000  Uiso   1.00
C1480  C     0.87446   0.38904   0.66445   0.00000  Uiso   1.00
N370   N     0.87456   0.40707   0.65901   0.00000  Uiso   1.00
C1481  C     0.87472   0.41252   0.64099   0.00000  Uiso   1.00
N371   N     0.87479   0.40069   0.62594   0.00000  Uiso   1.00
C1482  C     0.87497   0.41252   0.61090   0.00000  Uiso   1.00
C1483  C     0.87503   0.43111   0.61635   0.00000  Uiso   1.00
C1484  C     0.87487   0.43110   0.63554   0.00000  Uiso   1.00
N372   N     0.87477   0.37401   0.59927   0.00000  Uiso   1.00
C1485  C     0.87496   0.38905   0.58743   0.00000  Uiso   1.00
N373   N     0.87505   0.40707   0.59288   0.00000  Uiso   1.00
C1486  C     0.87499   0.38360   0.56885   0.00000  Uiso   1.00
C1487  C     0.87482   0.36441   0.56886   0.00000  Uiso   1.00
C1488  C     0.87469   0.35897   0.58744   0.00000  Uiso   1.00
C1489  C     0.87486   0.44780   0.64596   0.00000  Uiso   1.00
C1490  C     0.87502   0.46474   0.63572   0.00000  Uiso   1.00
C1491  C     0.87518   0.46474   0.61618   0.00000  Uiso   1.00
C1492  C     0.87519   0.44780   0.60594   0.00000  Uiso   1.00
C1493  C     0.87479   0.35399   0.55216   0.00000  Uiso   1.00
C1494  C     0.87493   0.36423   0.53522   0.00000  Uiso   1.00
C1495  C     0.87510   0.38376   0.53522   0.00000  Uiso   1.00
C1496  C     0.87514   0.39401   0.55215   0.00000  Uiso   1.00
N374   N     0.87449   0.34734   0.62595   0.00000  Uiso   1.00
C1497  C     0.87445   0.33550   0.61092   0.00000  Uiso   1.00
N375   N     0.87454   0.34095   0.59290   0.00000  Uiso   1.00
C1498  C     0.87433   0.31692   0.61638   0.00000  Uiso   1.00
C1499  C     0.87431   0.31691   0.63552   0.00000  Uiso   1.00
C1500  C     0.87441   0.33550   0.64099   0.00000  Uiso   1.00
C1501  C     0.87421   0.30027   0.64596   0.00000  Uiso   1.00
C1502  C     0.87414   0.28318   0.63597   0.00000  Uiso   1.00
C1503  C     0.87415   0.28320   0.61589   0.00000  Uiso   1.00
C1504  C     0.87425   0.30029   0.60592   0.00000  Uiso   1.00
N376   N     0.87437   0.34095   0.65901   0.00000  Uiso   1.00
H369   H     0.87421   0.33877   0.69947   0.00000  Uiso   1.00
O369   O     0.87407   0.35439   0.73390   0.00000  Uiso   1.00
O370   O     0.87409   0.39368   0.73387   0.00000  Uiso   1.00
H370   H     0.87428   0.40927   0.69944   0.00000  Uiso   1.00
H371   H     0.87473   0.44772   0.66119   0.00000  Uiso   1.00
O371   O     0.87502   0.48220   0.64422   0.00000  Uiso   1.00
O372   O     0.87533   0.48220   0.60768   0.00000  Uiso   1.00
H372   H     0.87532   0.44773   0.59071   0.00000  Uiso   1.00
H373   H     0.87465   0.33876   0.55224   0.00000  Uiso   1.00
O373   O     0.87490   0.35572   0.51776   0.00000  Uiso   1.00
O374   O     0.87523   0.39227   0.51775   0.00000  Uiso   1.00
H374   H     0.87527   0.40924   0.55222   0.00000  Uiso   1.00
H375   H     0.87420   0.30048   0.66119   0.00000  Uiso   1.00
O375   O     0.87406   0.26606   0.64557   0.00000  Uiso   1.00
O376   O     0.87408   0.26609   0.60627   0.00000  Uiso   1.00
H376   H     0.87427   0.30052   0.59069   0.00000  Uiso   1.00
Ni47   Ni    0.87464   0.37401   0.62594   0.00000  Uiso   1.00
C1505  C     0.12577   0.60601   0.69965   0.00000  Uiso   1.00
C1506  C     0.12587   0.61598   0.71674   0.00000  Uiso   1.00
C1507  C     0.12588   0.63606   0.71675   0.00000  Uiso   1.00
C1508  C     0.12581   0.64604   0.69966   0.00000  Uiso   1.00
C1509  C     0.12571   0.63560   0.68302   0.00000  Uiso   1.00
C1510  C     0.12569   0.61646   0.68301   0.00000  Uiso   1.00
C1511  C     0.12557   0.61100   0.66443   0.00000  Uiso   1.00
N377   N     0.12553   0.62603   0.65259   0.00000  Uiso   1.00
C1512  C     0.12562   0.64106   0.66443   0.00000  Uiso   1.00
N378   N     0.12566   0.65909   0.65897   0.00000  Uiso   1.00
C1513  C     0.12563   0.66454   0.64095   0.00000  Uiso   1.00
N379   N     0.12554   0.65270   0.62592   0.00000  Uiso   1.00
C1514  C     0.12558   0.66453   0.61088   0.00000  Uiso   1.00
C1515  C     0.12571   0.68312   0.61634   0.00000  Uiso   1.00
C1516  C     0.12573   0.68312   0.63548   0.00000  Uiso   1.00
N380   N     0.12523   0.62602   0.59924   0.00000  Uiso   1.00
C1517  C     0.12531   0.64106   0.58741   0.00000  Uiso   1.00
N381   N     0.12548   0.65909   0.59286   0.00000  Uiso   1.00
C1518  C     0.12517   0.63562   0.56883   0.00000  Uiso   1.00
C1519  C     0.12499   0.61643   0.56883   0.00000  Uiso   1.00
C1520  C     0.12504   0.61098   0.58741   0.00000  Uiso   1.00
C1521  C     0.12583   0.69977   0.64592   0.00000  Uiso   1.00
C1522  C     0.12590   0.71686   0.63593   0.00000  Uiso   1.00
C1523  C     0.12589   0.71684   0.61585   0.00000  Uiso   1.00
C1524  C     0.12579   0.69975   0.60588   0.00000  Uiso   1.00
C1525  C     0.12482   0.60602   0.55213   0.00000  Uiso   1.00
C1526  C     0.12484   0.61626   0.53519   0.00000  Uiso   1.00
C1527  C     0.12502   0.63579   0.53519   0.00000  Uiso   1.00
C1528  C     0.12518   0.64603   0.55213   0.00000  Uiso   1.00
N382   N     0.12523   0.59935   0.62592   0.00000  Uiso   1.00
C1529  C     0.12503   0.58751   0.61089   0.00000  Uiso   1.00
N383   N     0.12494   0.59296   0.59286   0.00000  Uiso   1.00
C1530  C     0.12499   0.56893   0.61634   0.00000  Uiso   1.00
C1531  C     0.12516   0.56893   0.63553   0.00000  Uiso   1.00
C1532  C     0.12531   0.58752   0.64097   0.00000  Uiso   1.00
C1533  C     0.12518   0.55224   0.64595   0.00000  Uiso   1.00
C1534  C     0.12502   0.53530   0.63571   0.00000  Uiso   1.00
C1535  C     0.12484   0.53530   0.61618   0.00000  Uiso   1.00
C1536  C     0.12482   0.55223   0.60593   0.00000  Uiso   1.00
N384   N     0.12547   0.59297   0.65899   0.00000  Uiso   1.00
H377   H     0.12575   0.59078   0.69942   0.00000  Uiso   1.00
O377   O     0.12594   0.60636   0.73385   0.00000  Uiso   1.00
O378   O     0.12596   0.64566   0.73387   0.00000  Uiso   1.00
H378   H     0.12582   0.66128   0.69943   0.00000  Uiso   1.00
H379   H     0.12583   0.69955   0.66115   0.00000  Uiso   1.00
O379   O     0.12597   0.73398   0.64552   0.00000  Uiso   1.00
O380   O     0.12597   0.73395   0.60623   0.00000  Uiso   1.00
H380   H     0.12577   0.69951   0.59065   0.00000  Uiso   1.00
H381   H     0.12468   0.59079   0.55220   0.00000  Uiso   1.00
O381   O     0.12470   0.60775   0.51773   0.00000  Uiso   1.00
O382   O     0.12502   0.64430   0.51773   0.00000  Uiso   1.00
H382   H     0.12532   0.66127   0.55220   0.00000  Uiso   1.00
H383   H     0.12532   0.55232   0.66118   0.00000  Uiso   1.00
O383   O     0.12503   0.51783   0.64422   0.00000  Uiso   1.00
O384   O     0.12470   0.51783   0.60768   0.00000  Uiso   1.00
H384   H     0.12468   0.55230   0.59070   0.00000  Uiso   1.00
Ni48   Ni    0.12538   0.62602   0.62592   0.00000  Uiso   1.00
Cu1    Cu    0.12602   1.00000   0.37502   0.00000  Uiso   1.00
Cu2    Cu   -0.00001   0.12603   0.37506   0.00000  Uiso   1.00
Cu3    Cu    0.87398   0.00000   0.37494   0.00000  Uiso   1.00
Cu4    Cu    0.00001   0.87398   0.37499   0.00000  Uiso   1.00
Cu5    Cu    0.12603   0.00002   0.62470   0.00000  Uiso   1.00
Cu6    Cu    0.00000   0.12604   0.62475   0.00000  Uiso   1.00
Cu7    Cu    0.87398   0.00002   0.62467   0.00000  Uiso   1.00
Cu8    Cu    0.00001   0.87400   0.62469   0.00000  Uiso   1.00
Cu9    Cu    0.37517   0.12603   0.99992   0.00000  Uiso   1.00
Cu10   Cu    0.87399   0.37513   0.99994   0.00000  Uiso   1.00
Cu11   Cu    0.62482   0.87398   0.99989   0.00000  Uiso   1.00
Cu12   Cu    0.12603   0.62491   0.99991   0.00000  Uiso   1.00
Cu13   Cu    0.37509   0.87399   0.99991   0.00000  Uiso   1.00
Cu14   Cu    0.12603   0.37517   0.99995   0.00000  Uiso   1.00
Cu15   Cu    0.62485   0.12603   0.99990   0.00000  Uiso   1.00
Cu16   Cu    0.87398   0.62489   0.99991   0.00000  Uiso   1.00
Cu17   Cu   -0.00000   0.37514   0.12597   0.00000  Uiso   1.00
Cu18   Cu    0.00001   0.62488   0.87389   0.00000  Uiso   1.00
Cu19   Cu    0.37517   0.00002   0.87389   0.00000  Uiso   1.00
Cu20   Cu    0.00002   0.37510   0.87392   0.00000  Uiso   1.00
Cu21   Cu    0.62488   0.00002   0.87387   0.00000  Uiso   1.00
Cu22   Cu    0.99999   0.62486   0.12593   0.00000  Uiso   1.00
Cu23   Cu    0.37516   0.00000   0.12594   0.00000  Uiso   1.00
Cu24   Cu    0.62484  -0.00000   0.12592   0.00000  Uiso   1.00
Cu25   Cu    0.62604   0.50001   0.87502   0.00000  Uiso   1.00
Cu26   Cu    0.50001   0.62604   0.87503   0.00000  Uiso   1.00
Cu27   Cu    0.37399   0.50002   0.87500   0.00000  Uiso   1.00
Cu28   Cu    0.50002   0.37400   0.87503   0.00000  Uiso   1.00
Cu29   Cu    0.62601   0.49999   0.12469   0.00000  Uiso   1.00
Cu30   Cu    0.49999   0.62602   0.12470   0.00000  Uiso   1.00
Cu31   Cu    0.37397   0.50000   0.12470   0.00000  Uiso   1.00
Cu32   Cu    0.50000   0.37398   0.12472   0.00000  Uiso   1.00
Cu33   Cu    0.87516   0.62603   0.49991   0.00000  Uiso   1.00
Cu34   Cu    0.37399   0.87514   0.49991   0.00000  Uiso   1.00
Cu35   Cu    0.12479   0.37399   0.49994   0.00000  Uiso   1.00
Cu36   Cu    0.62602   0.12491   0.49990   0.00000  Uiso   1.00
Cu37   Cu    0.87506   0.37399   0.49994   0.00000  Uiso   1.00
Cu38   Cu    0.62603   0.87519   0.49989   0.00000  Uiso   1.00
Cu39   Cu    0.12486   0.62603   0.49991   0.00000  Uiso   1.00
Cu40   Cu    0.37398   0.12490   0.49992   0.00000  Uiso   1.00
Cu41   Cu    0.50001   0.87519   0.62592   0.00000  Uiso   1.00
Cu42   Cu    0.49999   0.12484   0.37389   0.00000  Uiso   1.00
Cu43   Cu    0.87510   0.50000   0.37390   0.00000  Uiso   1.00
Cu44   Cu    0.50001   0.87508   0.37387   0.00000  Uiso   1.00
Cu45   Cu    0.12485   0.50000   0.37391   0.00000  Uiso   1.00
Cu46   Cu    0.50000   0.12492   0.62593   0.00000  Uiso   1.00
Cu47   Cu    0.87519   0.50002   0.62595   0.00000  Uiso   1.00
Cu48   Cu    0.12486   0.50002   0.62595   0.00000  Uiso   1.00
Zn1    Zn    0.12596   0.25000   0.37398   0.00000  Uiso   1.00
Zn2    Zn    0.74999   0.12596   0.37392   0.00000  Uiso   1.00
Zn3    Zn    0.87405   0.75000   0.37391   0.00000  Uiso   1.00
Zn4    Zn    0.25001   0.87402   0.37396   0.00000  Uiso   1.00
Zn5    Zn    0.12600   0.75002   0.62585   0.00000  Uiso   1.00
Zn6    Zn    0.25000   0.12598   0.62591   0.00000  Uiso   1.00
Zn7    Zn    0.87404   0.25002   0.62590   0.00000  Uiso   1.00
Zn8    Zn    0.75001   0.87405   0.62584   0.00000  Uiso   1.00
Zn9    Zn    0.37402   0.12596   0.24992   0.00000  Uiso   1.00
Zn10   Zn    0.87401   0.37404   0.24994   0.00000  Uiso   1.00
Zn11   Zn    0.62596   0.87402   0.24989   0.00000  Uiso   1.00
Zn12   Zn    0.12595   0.62598   0.24991   0.00000  Uiso   1.00
Zn13   Zn    0.37404   0.87408   0.74991   0.00000  Uiso   1.00
Zn14   Zn    0.12598   0.37405   0.74994   0.00000  Uiso   1.00
Zn15   Zn    0.62597   0.12601   0.74990   0.00000  Uiso   1.00
Zn16   Zn    0.87405   0.62600   0.74991   0.00000  Uiso   1.00
Zn17   Zn    0.25000   0.37403   0.12592   0.00000  Uiso   1.00
Zn18   Zn    0.25001   0.62599   0.87394   0.00000  Uiso   1.00
Zn19   Zn    0.37406   0.25002   0.87395   0.00000  Uiso   1.00
Zn20   Zn    0.75002   0.37403   0.87397   0.00000  Uiso   1.00
Zn21   Zn    0.62598   0.75002   0.87391   0.00000  Uiso   1.00
Zn22   Zn    0.74999   0.62595   0.12587   0.00000  Uiso   1.00
Zn23   Zn    0.37403   0.75000   0.12586   0.00000  Uiso   1.00
Zn24   Zn    0.62598   0.25000   0.12586   0.00000  Uiso   1.00
Zn25   Zn    0.87406   0.75002   0.62585   0.00000  Uiso   1.00
Zn26   Zn    0.25001   0.87404   0.62589   0.00000  Uiso   1.00
Zn27   Zn    0.12597   0.25002   0.62591   0.00000  Uiso   1.00
Zn28   Zn    0.75000   0.12599   0.62586   0.00000  Uiso   1.00
Zn29   Zn    0.87401   0.25000   0.37397   0.00000  Uiso   1.00
Zn30   Zn    0.75001   0.87403   0.37391   0.00000  Uiso   1.00
Zn31   Zn    0.12599   0.75000   0.37393   0.00000  Uiso   1.00
Zn32   Zn    0.24999   0.12597   0.37397   0.00000  Uiso   1.00
Zn33   Zn    0.62598   0.87407   0.74989   0.00000  Uiso   1.00
Zn34   Zn    0.12598   0.62600   0.74991   0.00000  Uiso   1.00
Zn35   Zn    0.37403   0.12601   0.74992   0.00000  Uiso   1.00
Zn36   Zn    0.87405   0.37405   0.74994   0.00000  Uiso   1.00
Zn37   Zn    0.62595   0.12596   0.24990   0.00000  Uiso   1.00
Zn38   Zn    0.87401   0.62597   0.24991   0.00000  Uiso   1.00
Zn39   Zn    0.37402   0.87402   0.24991   0.00000  Uiso   1.00
Zn40   Zn    0.12595   0.37404   0.24994   0.00000  Uiso   1.00
Zn41   Zn    0.75001   0.62598   0.87395   0.00000  Uiso   1.00
Zn42   Zn    0.75000   0.37402   0.12590   0.00000  Uiso   1.00
Zn43   Zn    0.62596   0.74999   0.12584   0.00000  Uiso   1.00
Zn44   Zn    0.24999   0.62597   0.12588   0.00000  Uiso   1.00
Zn45   Zn    0.37405   0.25000   0.12589   0.00000  Uiso   1.00
Zn46   Zn    0.25002   0.37405   0.87398   0.00000  Uiso   1.00
Zn47   Zn    0.62599   0.25002   0.87393   0.00000  Uiso   1.00
Zn48   Zn    0.37404   0.75002   0.87393   0.00000  Uiso   1.00
loop_
_geom_bond_atom_site_label_1
_geom_bond_atom_site_label_2
_geom_bond_distance
_geom_bond_site_symmetry_2
_ccdc_geom_bond_type
C1     C2      1.406   .     A
C1     C6      1.396   .     A
C1     H1      1.083   .     S
C2     C3      1.427   .     A
C2     O1      1.395   .     S
C3     C4      1.407   .     A
C3     O2      1.395   .     S
C4     C5      1.396   .     A
C4     H2      1.083   .     S
C5     C6      1.360   .     A
C5     C8      1.377   .     A
C6     C7      1.376   .     A
C7     N1      1.360   .     A
C7     N8      1.338   .     A
N1     C8      1.360   .     A
N1     Ni1     1.896   .     S
C8     N2      1.338   .     A
N2     C9      1.338   .     A
C9     N3      1.360   .     A
C9     C12     1.377   .     A
N3     C10     1.360   .     A
N3     Ni1     1.896   .     S
C10    C11     1.376   .     A
C10    N5      1.338   .     A
C11    C12     1.360   .     A
C11    C20     1.396   .     A
C12    C17     1.396   .     A
N4     C13     1.360   .     A
N4     C16     1.360   .     A
N4     Ni1     1.896   .     S
C13    N5      1.338   .     A
C13    C14     1.376   .     A
C14    C15     1.363   .     A
C14    C24     1.399   .     A
C15    C16     1.376   .     A
C15    C21     1.399   .     A
C16    N7      1.338   .     A
C17    C18     1.407   .     A
C17    H3      1.083   .     S
C18    C19     1.427   .     A
C18    O3      1.395   .     S
C19    C20     1.406   .     A
C19    O4      1.395   .     S
C20    H4      1.083   .     S
C21    C22     1.406   .     A
C21    H5      1.082   .     S
C22    C23     1.388   .     A
C22    O5      1.381   .     S
C23    C24     1.406   .     A
C23    O6      1.381   .     S
C24    H6      1.082   .     S
N6     C25     1.360   .     A
N6     C28     1.360   .     A
N6     Ni1     1.896   .     S
C25    N7      1.338   .     A
C25    C26     1.376   .     A
C26    C27     1.363   .     A
C26    C32     1.399   .     A
C27    C28     1.376   .     A
C27    C29     1.399   .     A
C28    N8      1.338   .     A
C29    C30     1.406   .     A
C29    H7      1.082   .     S
C30    C31     1.388   .     A
C30    O7      1.381   .     S
C31    C32     1.406   .     A
C31    O8      1.381   .     S
C32    H8      1.082   .     S
O1     Zn1     1.803   .     S
O2     Zn1     1.803   .     S
O3     Zn32    1.803   .     S
O4     Zn32    1.803   .     S
O5     Cu1     1.814   1_545 S
O6     Cu1     1.814   1_545 S
O7     Cu2     1.814   .     S
O8     Cu2     1.814   .     S
C33    C34     1.407   .     A
C33    C38     1.396   .     A
C33    H9      1.083   .     S
C34    C35     1.427   .     A
C34    O9      1.395   .     S
C35    C36     1.406   .     A
C35    O10     1.395   .     S
C36    C37     1.396   .     A
C36    H10     1.083   .     S
C37    C38     1.360   .     A
C37    C40     1.376   .     A
C38    C39     1.377   .     A
C39    N9      1.360   .     A
C39    N16     1.338   .     A
N9     C40     1.360   .     A
N9     Ni2     1.896   .     S
C40    N10     1.338   .     A
N10    C41     1.338   .     A
C41    N11     1.360   .     A
C41    C44     1.376   .     A
N11    C42     1.360   .     A
N11    Ni2     1.896   .     S
C42    C43     1.376   .     A
C42    N13     1.338   .     A
C43    C44     1.363   .     A
C43    C52     1.399   .     A
C44    C49     1.399   .     A
N12    C45     1.360   .     A
N12    C48     1.360   .     A
N12    Ni2     1.896   .     S
C45    N13     1.338   .     A
C45    C46     1.376   .     A
C46    C47     1.363   .     A
C46    C56     1.399   .     A
C47    C48     1.376   .     A
C47    C53     1.399   .     A
C48    N15     1.338   .     A
C49    C50     1.406   .     A
C49    H11     1.082   .     S
C50    C51     1.388   .     A
C50    O11     1.381   .     S
C51    C52     1.406   .     A
C51    O12     1.381   .     S
C52    H12     1.082   .     S
C53    C54     1.406   .     A
C53    H13     1.082   .     S
C54    C55     1.388   .     A
C54    O13     1.381   .     S
C55    C56     1.406   .     A
C55    O14     1.381   .     S
C56    H14     1.082   .     S
N14    C57     1.360   .     A
N14    C60     1.360   .     A
N14    Ni2     1.895   .     S
C57    N15     1.338   .     A
C57    C58     1.376   .     A
C58    C59     1.361   .     A
C58    C64     1.396   .     A
C59    C60     1.377   .     A
C59    C61     1.396   .     A
C60    N16     1.338   .     A
C61    C62     1.407   .     A
C61    H15     1.083   .     S
C62    C63     1.427   .     A
C62    O15     1.395   .     S
C63    C64     1.406   .     A
C63    O16     1.395   .     S
C64    H16     1.083   .     S
O9     Zn29    1.803   .     S
O10    Zn29    1.803   .     S
O11    Cu2     1.814   1_655 S
O12    Cu2     1.814   1_655 S
O13    Cu3     1.814   .     S
O14    Cu3     1.814   .     S
O15    Zn2     1.803   .     S
O16    Zn2     1.803   .     S
C65    C66     1.406   .     A
C65    C70     1.399   .     A
C65    H17     1.082   .     S
C66    C67     1.388   .     A
C66    O17     1.381   .     S
C67    C68     1.406   .     A
C67    O18     1.381   .     S
C68    C69     1.399   .     A
C68    H18     1.082   .     S
C69    C70     1.363   .     A
C69    C72     1.376   .     A
C70    C71     1.376   .     A
C71    N17     1.360   .     A
C71    N24     1.338   .     A
N17    C72     1.360   .     A
N17    Ni3     1.896   .     S
C72    N18     1.338   .     A
N18    C73     1.338   .     A
C73    N19     1.360   .     A
C73    C76     1.376   .     A
N19    C74     1.360   .     A
N19    Ni3     1.896   .     S
C74    C75     1.376   .     A
C74    N21     1.338   .     A
C75    C76     1.363   .     A
C75    C84     1.399   .     A
C76    C81     1.399   .     A
N20    C77     1.360   .     A
N20    C80     1.360   .     A
N20    Ni3     1.896   .     S
C77    N21     1.338   .     A
C77    C78     1.376   .     A
C78    C79     1.361   .     A
C78    C88     1.396   .     A
C79    C80     1.377   .     A
C79    C85     1.396   .     A
C80    N23     1.338   .     A
C81    C82     1.406   .     A
C81    H19     1.082   .     S
C82    C83     1.388   .     A
C82    O19     1.381   .     S
C83    C84     1.406   .     A
C83    O20     1.381   .     S
C84    H20     1.082   .     S
C85    C86     1.407   .     A
C85    H21     1.083   .     S
C86    C87     1.427   .     A
C86    O21     1.395   .     S
C87    C88     1.406   .     A
C87    O22     1.395   .     S
C88    H22     1.083   .     S
N22    C89     1.360   .     A
N22    C92     1.360   .     A
N22    Ni3     1.896   .     S
C89    N23     1.338   .     A
C89    C90     1.377   .     A
C90    C91     1.361   .     A
C90    C96     1.396   .     A
C91    C92     1.376   .     A
C91    C93     1.396   .     A
C92    N24     1.338   .     A
C93    C94     1.406   .     A
C93    H23     1.083   .     S
C94    C95     1.427   .     A
C94    O23     1.395   .     S
C95    C96     1.407   .     A
C95    O24     1.395   .     S
C96    H24     1.083   .     S
O17    Cu3     1.814   1_565 S
O18    Cu3     1.814   1_565 S
O19    Cu4     1.814   1_655 S
O20    Cu4     1.814   1_655 S
O21    Zn3     1.803   .     S
O22    Zn3     1.803   .     S
O23    Zn30    1.803   .     S
O24    Zn30    1.803   .     S
C97    C98     1.406   .     A
C97    C102    1.399   .     A
C97    H25     1.082   .     S
C98    C99     1.388   .     A
C98    O25     1.381   .     S
C99    C100    1.406   .     A
C99    O26     1.381   .     S
C100   C101    1.399   .     A
C100   H26     1.082   .     S
C101   C102    1.363   .     A
C101   C104    1.376   .     A
C102   C103    1.376   .     A
C103   N25     1.360   .     A
C103   N32     1.338   .     A
N25    C104    1.360   .     A
N25    Ni4     1.896   .     S
C104   N26     1.338   .     A
N26    C105    1.338   .     A
C105   N27     1.360   .     A
C105   C108    1.376   .     A
N27    C106    1.360   .     A
N27    Ni4     1.896   .     S
C106   C107    1.377   .     A
C106   N29     1.338   .     A
C107   C108    1.360   .     A
C107   C116    1.396   .     A
C108   C113    1.396   .     A
N28    C109    1.360   .     A
N28    C112    1.360   .     A
N28    Ni4     1.895   .     S
C109   N29     1.338   .     A
C109   C110    1.377   .     A
C110   C111    1.361   .     A
C110   C120    1.396   .     A
C111   C112    1.376   .     A
C111   C117    1.396   .     A
C112   N31     1.338   .     A
C113   C114    1.406   .     A
C113   H27     1.083   .     S
C114   C115    1.427   .     A
C114   O27     1.395   .     S
C115   C116    1.407   .     A
C115   O28     1.395   .     S
C116   H28     1.083   .     S
C117   C118    1.406   .     A
C117   H29     1.083   .     S
C118   C119    1.427   .     A
C118   O29     1.395   .     S
C119   C120    1.407   .     A
C119   O30     1.395   .     S
C120   H30     1.083   .     S
N30    C121    1.360   .     A
N30    C124    1.360   .     A
N30    Ni4     1.896   .     S
C121   N31     1.338   .     A
C121   C122    1.376   .     A
C122   C123    1.363   .     A
C122   C128    1.399   .     A
C123   C124    1.376   .     A
C123   C125    1.399   .     A
C124   N32     1.338   .     A
C125   C126    1.406   .     A
C125   H31     1.082   .     S
C126   C127    1.388   .     A
C126   O31     1.381   .     S
C127   C128    1.406   .     A
C127   O32     1.381   .     S
C128   H32     1.082   .     S
O25    Cu1     1.814   .     S
O26    Cu1     1.814   .     S
O27    Zn4     1.803   .     S
O28    Zn4     1.803   .     S
O29    Zn31    1.803   .     S
O30    Zn31    1.803   .     S
O31    Cu4     1.814   .     S
O32    Cu4     1.814   .     S
C129   C130    1.406   .     A
C129   C134    1.399   .     A
C129   H33     1.082   .     S
C130   C131    1.388   .     A
C130   O33     1.381   .     S
C131   C132    1.406   .     A
C131   O34     1.381   .     S
C132   C133    1.399   .     A
C132   H34     1.082   .     S
C133   C134    1.363   .     A
C133   C136    1.376   .     A
C134   C135    1.376   .     A
C135   N33     1.360   .     A
C135   N40     1.338   .     A
N33    C136    1.360   .     A
N33    Ni5     1.896   .     S
C136   N34     1.338   .     A
N34    C137    1.338   .     A
C137   N35     1.360   .     A
C137   C140    1.376   .     A
N35    C138    1.360   .     A
N35    Ni5     1.896   .     S
C138   C139    1.377   .     A
C138   N37     1.338   .     A
C139   C140    1.360   .     A
C139   C148    1.396   .     A
C140   C145    1.396   .     A
N36    C141    1.360   .     A
N36    C144    1.360   .     A
N36    Ni5     1.895   .     S
C141   N37     1.338   .     A
C141   C142    1.377   .     A
C142   C143    1.360   .     A
C142   C152    1.396   .     A
C143   C144    1.376   .     A
C143   C149    1.396   .     A
C144   N39     1.338   .     A
C145   C146    1.406   .     A
C145   H35     1.083   .     S
C146   C147    1.427   .     A
C146   O35     1.395   .     S
C147   C148    1.407   .     A
C147   O36     1.395   .     S
C148   H36     1.083   .     S
C149   C150    1.406   .     A
C149   H37     1.083   .     S
C150   C151    1.427   .     A
C150   O37     1.395   .     S
C151   C152    1.407   .     A
C151   O38     1.395   .     S
C152   H38     1.083   .     S
N38    C153    1.360   .     A
N38    C156    1.360   .     A
N38    Ni5     1.896   .     S
C153   N39     1.338   .     A
C153   C154    1.376   .     A
C154   C155    1.363   .     A
C154   C160    1.399   .     A
C155   C156    1.376   .     A
C155   C157    1.399   .     A
C156   N40     1.338   .     A
C157   C158    1.406   .     A
C157   H39     1.082   .     S
C158   C159    1.388   .     A
C158   O39     1.381   .     S
C159   C160    1.406   .     A
C159   O40     1.381   .     S
C160   H40     1.082   .     S
O33    Cu5     1.814   1_565 S
O34    Cu5     1.814   1_565 S
O35    Zn26    1.803   .     S
O36    Zn26    1.803   .     S
O37    Zn5     1.803   .     S
O38    Zn5     1.803   .     S
O39    Cu8     1.814   .     S
O40    Cu8     1.814   .     S
C161   C162    1.406   .     A
C161   C166    1.396   .     A
C161   H41     1.083   .     S
C162   C163    1.427   .     A
C162   O41     1.395   .     S
C163   C164    1.407   .     A
C163   O42     1.395   .     S
C164   C165    1.396   .     A
C164   H42     1.083   .     S
C165   C166    1.360   .     A
C165   C168    1.377   .     A
C166   C167    1.376   .     A
C167   N41     1.360   .     A
C167   N48     1.338   .     A
N41    C168    1.360   .     A
N41    Ni6     1.896   .     S
C168   N42     1.338   .     A
N42    C169    1.338   .     A
C169   N43     1.360   .     A
C169   C172    1.377   .     A
N43    C170    1.360   .     A
N43    Ni6     1.896   .     S
C170   C171    1.376   .     A
C170   N45     1.338   .     A
C171   C172    1.360   .     A
C171   C180    1.396   .     A
C172   C177    1.396   .     A
N44    C173    1.360   .     A
N44    C176    1.360   .     A
N44    Ni6     1.896   .     S
C173   N45     1.338   .     A
C173   C174    1.376   .     A
C174   C175    1.363   .     A
C174   C184    1.399   .     A
C175   C176    1.376   .     A
C175   C181    1.399   .     A
C176   N47     1.338   .     A
C177   C178    1.407   .     A
C177   H43     1.083   .     S
C178   C179    1.427   .     A
C178   O43     1.395   .     S
C179   C180    1.406   .     A
C179   O44     1.395   .     S
C180   H44     1.083   .     S
C181   C182    1.406   .     A
C181   H45     1.082   .     S
C182   C183    1.388   .     A
C182   O45     1.381   .     S
C183   C184    1.406   .     A
C183   O46     1.381   .     S
C184   H46     1.082   .     S
N46    C185    1.360   .     A
N46    C188    1.360   .     A
N46    Ni6     1.896   .     S
C185   N47     1.338   .     A
C185   C186    1.376   .     A
C186   C187    1.363   .     A
C186   C192    1.399   .     A
C187   C188    1.376   .     A
C187   C189    1.399   .     A
C188   N48     1.338   .     A
C189   C190    1.406   .     A
C189   H47     1.082   .     S
C190   C191    1.388   .     A
C190   O47     1.381   .     S
C191   C192    1.406   .     A
C191   O48     1.381   .     S
C192   H48     1.082   .     S
O41    Zn27    1.803   .     S
O42    Zn27    1.803   .     S
O43    Zn6     1.803   .     S
O44    Zn6     1.803   .     S
O45    Cu5     1.814   .     S
O46    Cu5     1.814   .     S
O47    Cu6     1.814   .     S
O48    Cu6     1.814   .     S
C193   C194    1.407   .     A
C193   C198    1.396   .     A
C193   H49     1.083   .     S
C194   C195    1.427   .     A
C194   O49     1.395   .     S
C195   C196    1.406   .     A
C195   O50     1.395   .     S
C196   C197    1.396   .     A
C196   H50     1.083   .     S
C197   C198    1.360   .     A
C197   C200    1.376   .     A
C198   C199    1.377   .     A
C199   N49     1.360   .     A
C199   N56     1.338   .     A
N49    C200    1.360   .     A
N49    Ni7     1.896   .     S
C200   N50     1.338   .     A
N50    C201    1.338   .     A
C201   N51     1.360   .     A
C201   C204    1.376   .     A
N51    C202    1.360   .     A
N51    Ni7     1.896   .     S
C202   C203    1.376   .     A
C202   N53     1.338   .     A
C203   C204    1.363   .     A
C203   C212    1.399   .     A
C204   C209    1.399   .     A
N52    C205    1.360   .     A
N52    C208    1.360   .     A
N52    Ni7     1.896   .     S
C205   N53     1.338   .     A
C205   C206    1.376   .     A
C206   C207    1.363   .     A
C206   C216    1.399   .     A
C207   C208    1.376   .     A
C207   C213    1.399   .     A
C208   N55     1.338   .     A
C209   C210    1.406   .     A
C209   H51     1.082   .     S
C210   C211    1.388   .     A
C210   O51     1.381   .     S
C211   C212    1.406   .     A
C211   O52     1.381   .     S
C212   H52     1.082   .     S
C213   C214    1.406   .     A
C213   H53     1.082   .     S
C214   C215    1.388   .     A
C214   O53     1.381   .     S
C215   C216    1.406   .     A
C215   O54     1.381   .     S
C216   H54     1.082   .     S
N54    C217    1.360   .     A
N54    C220    1.360   .     A
N54    Ni7     1.896   .     S
C217   N55     1.338   .     A
C217   C218    1.376   .     A
C218   C219    1.361   .     A
C218   C224    1.396   .     A
C219   C220    1.377   .     A
C219   C221    1.396   .     A
C220   N56     1.338   .     A
C221   C222    1.407   .     A
C221   H55     1.083   .     S
C222   C223    1.427   .     A
C222   O55     1.395   .     S
C223   C224    1.406   .     A
C223   O56     1.395   .     S
C224   H56     1.083   .     S
O49    Zn7     1.803   .     S
O50    Zn7     1.803   .     S
O51    Cu6     1.814   1_655 S
O52    Cu6     1.814   1_655 S
O53    Cu7     1.814   .     S
O54    Cu7     1.814   .     S
O55    Zn28    1.803   .     S
O56    Zn28    1.803   .     S
C225   C226    1.406   .     A
C225   C230    1.399   .     A
C225   H57     1.082   .     S
C226   C227    1.388   .     A
C226   O57     1.381   .     S
C227   C228    1.406   .     A
C227   O58     1.381   .     S
C228   C229    1.399   .     A
C228   H58     1.082   .     S
C229   C230    1.363   .     A
C229   C232    1.376   .     A
C230   C231    1.376   .     A
C231   N57     1.360   .     A
C231   N64     1.338   .     A
N57    C232    1.360   .     A
N57    Ni8     1.896   .     S
C232   N58     1.338   .     A
N58    C233    1.338   .     A
C233   N59     1.360   .     A
C233   C236    1.376   .     A
N59    C234    1.360   .     A
N59    Ni8     1.896   .     S
C234   C235    1.376   .     A
C234   N61     1.338   .     A
C235   C236    1.363   .     A
C235   C244    1.399   .     A
C236   C241    1.399   .     A
N60    C237    1.360   .     A
N60    C240    1.360   .     A
N60    Ni8     1.896   .     S
C237   N61     1.338   .     A
C237   C238    1.376   .     A
C238   C239    1.360   .     A
C238   C248    1.396   .     A
C239   C240    1.377   .     A
C239   C245    1.396   .     A
C240   N63     1.338   .     A
C241   C242    1.406   .     A
C241   H59     1.082   .     S
C242   C243    1.388   .     A
C242   O59     1.381   .     S
C243   C244    1.406   .     A
C243   O60     1.381   .     S
C244   H60     1.082   .     S
C245   C246    1.407   .     A
C245   H61     1.083   .     S
C246   C247    1.427   .     A
C246   O61     1.395   .     S
C247   C248    1.406   .     A
C247   O62     1.395   .     S
C248   H62     1.083   .     S
N62    C249    1.360   .     A
N62    C252    1.360   .     A
N62    Ni8     1.896   .     S
C249   N63     1.338   .     A
C249   C250    1.377   .     A
C250   C251    1.361   .     A
C250   C256    1.396   .     A
C251   C252    1.376   .     A
C251   C253    1.396   .     A
C252   N64     1.338   .     A
C253   C254    1.406   .     A
C253   H63     1.083   .     S
C254   C255    1.427   .     A
C254   O63     1.395   .     S
C255   C256    1.407   .     A
C255   O64     1.395   .     S
C256   H64     1.083   .     S
O57    Cu7     1.814   1_565 S
O58    Cu7     1.814   1_565 S
O59    Cu8     1.814   1_655 S
O60    Cu8     1.814   1_655 S
O61    Zn25    1.803   .     S
O62    Zn25    1.803   .     S
O63    Zn8     1.803   .     S
O64    Zn8     1.803   .     S
C257   C258    1.406   .     A
C257   C262    1.399   .     A
C257   H65     1.082   .     S
C258   C259    1.388   .     A
C258   O65     1.381   .     S
C259   C260    1.406   .     A
C259   O66     1.381   .     S
C260   C261    1.399   .     A
C260   H66     1.082   .     S
C261   C262    1.363   .     A
C261   C264    1.376   .     A
C262   C263    1.376   .     A
C263   N65     1.360   .     A
C263   N72     1.338   .     A
N65    C264    1.360   .     A
N65    Ni9     1.896   .     S
C264   N66     1.338   .     A
N66    C265    1.338   .     A
C265   N67     1.360   .     A
C265   C268    1.376   .     A
N67    C266    1.360   .     A
N67    Ni9     1.896   .     S
C266   C267    1.376   .     A
C266   N69     1.338   .     A
C267   C268    1.363   .     A
C267   C276    1.399   .     A
C268   C273    1.399   .     A
N68    C269    1.360   .     A
N68    C272    1.360   .     A
N68    Ni9     1.896   .     S
C269   N69     1.338   .     A
C269   C270    1.376   .     A
C270   C271    1.361   .     A
C270   C280    1.396   .     A
C271   C272    1.377   .     A
C271   C277    1.396   .     A
C272   N71     1.338   .     A
C273   C274    1.406   .     A
C273   H67     1.082   .     S
C274   C275    1.388   .     A
C274   O67     1.381   .     S
C275   C276    1.406   .     A
C275   O68     1.381   .     S
C276   H68     1.082   .     S
C277   C278    1.407   .     A
C277   H69     1.083   .     S
C278   C279    1.427   .     A
C278   O69     1.395   .     S
C279   C280    1.406   .     A
C279   O70     1.395   .     S
C280   H70     1.083   .     S
N70    C281    1.360   .     A
N70    C284    1.360   .     A
N70    Ni9     1.896   .     S
C281   N71     1.338   .     A
C281   C282    1.377   .     A
C282   C283    1.360   .     A
C282   C288    1.396   .     A
C283   C284    1.376   .     A
C283   C285    1.396   .     A
C284   N72     1.338   .     A
C285   C286    1.406   .     A
C285   H71     1.083   .     S
C286   C287    1.427   .     A
C286   O71     1.395   .     S
C287   C288    1.407   .     A
C287   O72     1.395   .     S
C288   H72     1.083   .     S
O65    Cu23    1.814   .     S
O66    Cu23    1.814   .     S
O67    Cu9     1.814   1_554 S
O68    Cu9     1.814   1_554 S
O69    Zn45    1.803   .     S
O70    Zn45    1.803   .     S
O71    Zn9     1.803   .     S
O72    Zn9     1.803   .     S
C289   C290    1.407   .     A
C289   C294    1.396   .     A
C289   H73     1.083   .     S
C290   C291    1.427   .     A
C290   O73     1.395   .     S
C291   C292    1.406   .     A
C291   O74     1.395   .     S
C292   C293    1.396   .     A
C292   H74     1.083   .     S
C293   C294    1.360   .     A
C293   C296    1.376   .     A
C294   C295    1.377   .     A
C295   N73     1.360   .     A
C295   N80     1.338   .     A
N73    C296    1.360   .     A
N73    Ni10    1.896   .     S
C296   N74     1.338   .     A
N74    C297    1.338   .     A
C297   N75     1.360   .     A
C297   C300    1.376   .     A
N75    C298    1.360   .     A
N75    Ni10    1.896   .     S
C298   C299    1.376   .     A
C298   N77     1.338   .     A
C299   C300    1.363   .     A
C299   C308    1.399   .     A
C300   C305    1.399   .     A
N76    C301    1.360   .     A
N76    C304    1.360   .     A
N76    Ni10    1.896   .     S
C301   N77     1.338   .     A
C301   C302    1.376   .     A
C302   C303    1.363   .     A
C302   C312    1.399   .     A
C303   C304    1.376   .     A
C303   C309    1.399   .     A
C304   N79     1.338   .     A
C305   C306    1.406   .     A
C305   H75     1.082   .     S
C306   C307    1.388   .     A
C306   O75     1.381   .     S
C307   C308    1.406   .     A
C307   O76     1.381   .     S
C308   H76     1.082   .     S
C309   C310    1.406   .     A
C309   H77     1.082   .     S
C310   C311    1.388   .     A
C310   O77     1.381   .     S
C311   C312    1.406   .     A
C311   O78     1.381   .     S
C312   H78     1.082   .     S
N78    C313    1.360   .     A
N78    C316    1.360   .     A
N78    Ni10    1.896   .     S
C313   N79     1.338   .     A
C313   C314    1.376   .     A
C314   C315    1.360   .     A
C314   C320    1.396   .     A
C315   C316    1.377   .     A
C315   C317    1.396   .     A
C316   N80     1.338   .     A
C317   C318    1.407   .     A
C317   H79     1.083   .     S
C318   C319    1.427   .     A
C318   O79     1.395   .     S
C319   C320    1.406   .     A
C319   O80     1.395   .     S
C320   H80     1.083   .     S
O73    Zn10    1.803   .     S
O74    Zn10    1.803   .     S
O75    Cu17    1.814   1_655 S
O76    Cu17    1.814   1_655 S
O77    Cu10    1.814   1_554 S
O78    Cu10    1.814   1_554 S
O79    Zn42    1.803   .     S
O80    Zn42    1.803   .     S
C321   C322    1.407   .     A
C321   C326    1.396   .     A
C321   H81     1.083   .     S
C322   C323    1.427   .     A
C322   O81     1.395   .     S
C323   C324    1.406   .     A
C323   O82     1.395   .     S
C324   C325    1.396   .     A
C324   H82     1.083   .     S
C325   C326    1.361   .     A
C325   C328    1.376   .     A
C326   C327    1.377   .     A
C327   N81     1.360   .     A
C327   N88     1.338   .     A
N81    C328    1.360   .     A
N81    Ni11    1.896   .     S
C328   N82     1.338   .     A
N82    C329    1.338   .     A
C329   N83     1.360   .     A
C329   C332    1.376   .     A
N83    C330    1.360   .     A
N83    Ni11    1.896   .     S
C330   C331    1.376   .     A
C330   N85     1.338   .     A
C331   C332    1.363   .     A
C331   C340    1.399   .     A
C332   C337    1.399   .     A
N84    C333    1.360   .     A
N84    C336    1.360   .     A
N84    Ni11    1.896   .     S
C333   N85     1.338   .     A
C333   C334    1.376   .     A
C334   C335    1.363   .     A
C334   C344    1.399   .     A
C335   C336    1.376   .     A
C335   C341    1.399   .     A
C336   N87     1.338   .     A
C337   C338    1.406   .     A
C337   H83     1.082   .     S
C338   C339    1.388   .     A
C338   O83     1.381   .     S
C339   C340    1.406   .     A
C339   O84     1.381   .     S
C340   H84     1.082   .     S
C341   C342    1.406   .     A
C341   H85     1.082   .     S
C342   C343    1.388   .     A
C342   O85     1.381   .     S
C343   C344    1.406   .     A
C343   O86     1.381   .     S
C344   H86     1.082   .     S
N86    C345    1.360   .     A
N86    C348    1.360   .     A
N86    Ni11    1.895   .     S
C345   N87     1.338   .     A
C345   C346    1.376   .     A
C346   C347    1.361   .     A
C346   C352    1.396   .     A
C347   C348    1.377   .     A
C347   C349    1.396   .     A
C348   N88     1.338   .     A
C349   C350    1.407   .     A
C349   H87     1.083   .     S
C350   C351    1.427   .     A
C350   O87     1.395   .     S
C351   C352    1.406   .     A
C351   O88     1.395   .     S
C352   H88     1.083   .     S
O81    Zn11    1.803   .     S
O82    Zn11    1.803   .     S
O83    Cu24    1.814   1_565 S
O84    Cu24    1.814   1_565 S
O85    Cu11    1.814   1_554 S
O86    Cu11    1.814   1_554 S
O87    Zn43    1.803   .     S
O88    Zn43    1.803   .     S
C353   C354    1.406   .     A
C353   C358    1.396   .     A
C353   H89     1.083   .     S
C354   C355    1.427   .     A
C354   O89     1.395   .     S
C355   C356    1.407   .     A
C355   O90     1.395   .     S
C356   C357    1.396   .     A
C356   H90     1.083   .     S
C357   C358    1.360   .     A
C357   C360    1.377   .     A
C358   C359    1.376   .     A
C359   N89     1.360   .     A
C359   N96     1.338   .     A
N89    C360    1.360   .     A
N89    Ni12    1.896   .     S
C360   N90     1.338   .     A
N90    C361    1.338   .     A
C361   N91     1.360   .     A
C361   C364    1.377   .     A
N91    C362    1.360   .     A
N91    Ni12    1.896   .     S
C362   C363    1.376   .     A
C362   N93     1.338   .     A
C363   C364    1.360   .     A
C363   C372    1.396   .     A
C364   C369    1.396   .     A
N92    C365    1.360   .     A
N92    C368    1.360   .     A
N92    Ni12    1.896   .     S
C365   N93     1.338   .     A
C365   C366    1.376   .     A
C366   C367    1.363   .     A
C366   C376    1.399   .     A
C367   C368    1.376   .     A
C367   C373    1.399   .     A
C368   N95     1.338   .     A
C369   C370    1.407   .     A
C369   H91     1.083   .     S
C370   C371    1.427   .     A
C370   O91     1.395   .     S
C371   C372    1.406   .     A
C371   O92     1.395   .     S
C372   H92     1.083   .     S
C373   C374    1.406   .     A
C373   H93     1.082   .     S
C374   C375    1.388   .     A
C374   O93     1.381   .     S
C375   C376    1.406   .     A
C375   O94     1.381   .     S
C376   H94     1.082   .     S
N94    C377    1.360   .     A
N94    C380    1.360   .     A
N94    Ni12    1.896   .     S
C377   N95     1.338   .     A
C377   C378    1.376   .     A
C378   C379    1.363   .     A
C378   C384    1.399   .     A
C379   C380    1.376   .     A
C379   C381    1.399   .     A
C380   N96     1.338   .     A
C381   C382    1.406   .     A
C381   H95     1.082   .     S
C382   C383    1.388   .     A
C382   O95     1.381   .     S
C383   C384    1.406   .     A
C383   O96     1.381   .     S
C384   H96     1.082   .     S
O89    Zn12    1.803   .     S
O90    Zn12    1.803   .     S
O91    Zn44    1.803   .     S
O92    Zn44    1.803   .     S
O93    Cu12    1.814   1_554 S
O94    Cu12    1.814   1_554 S
O95    Cu22    1.814   1_455 S
O96    Cu22    1.814   1_455 S
C385   C386    1.406   .     A
C385   C390    1.396   .     A
C385   H97     1.083   .     S
C386   C387    1.427   .     A
C386   O97     1.395   .     S
C387   C388    1.407   .     A
C387   O98     1.395   .     S
C388   C389    1.396   .     A
C388   H98     1.083   .     S
C389   C390    1.361   .     A
C389   C392    1.377   .     A
C390   C391    1.376   .     A
C391   N97     1.360   .     A
C391   N104    1.338   .     A
N97    C392    1.360   .     A
N97    Ni13    1.896   .     S
C392   N98     1.338   .     A
N98    C393    1.338   .     A
C393   N99     1.360   .     A
C393   C396    1.377   .     A
N99    C394    1.360   .     A
N99    Ni13    1.896   .     S
C394   C395    1.376   .     A
C394   N101    1.338   .     A
C395   C396    1.361   .     A
C395   C404    1.396   .     A
C396   C401    1.396   .     A
N100   C397    1.360   .     A
N100   C400    1.360   .     A
N100   Ni13    1.896   .     S
C397   N101    1.338   .     A
C397   C398    1.376   .     A
C398   C399    1.363   .     A
C398   C408    1.399   .     A
C399   C400    1.376   .     A
C399   C405    1.399   .     A
C400   N103    1.338   .     A
C401   C402    1.407   .     A
C401   H99     1.083   .     S
C402   C403    1.427   .     A
C402   O99     1.395   .     S
C403   C404    1.406   .     A
C403   O100    1.395   .     S
C404   H100    1.083   .     S
C405   C406    1.406   .     A
C405   H101    1.082   .     S
C406   C407    1.388   .     A
C406   O101    1.381   .     S
C407   C408    1.406   .     A
C407   O102    1.381   .     S
C408   H102    1.082   .     S
N102   C409    1.360   .     A
N102   C412    1.360   .     A
N102   Ni13    1.896   .     S
C409   N103    1.338   .     A
C409   C410    1.376   .     A
C410   C411    1.363   .     A
C410   C416    1.399   .     A
C411   C412    1.376   .     A
C411   C413    1.399   .     A
C412   N104    1.338   .     A
C413   C414    1.406   .     A
C413   H103    1.082   .     S
C414   C415    1.388   .     A
C414   O103    1.381   .     S
C415   C416    1.406   .     A
C415   O104    1.381   .     S
C416   H104    1.082   .     S
O97    Zn48    1.803   .     S
O98    Zn48    1.803   .     S
O99    Zn13    1.803   .     S
O100   Zn13    1.803   .     S
O101   Cu19    1.814   1_565 S
O102   Cu19    1.814   1_565 S
O103   Cu13    1.814   .     S
O104   Cu13    1.814   .     S
C417   C418    1.406   .     A
C417   C422    1.399   .     A
C417   H105    1.082   .     S
C418   C419    1.388   .     A
C418   O105    1.381   .     S
C419   C420    1.406   .     A
C419   O106    1.381   .     S
C420   C421    1.399   .     A
C420   H106    1.082   .     S
C421   C422    1.363   .     A
C421   C424    1.376   .     A
C422   C423    1.376   .     A
C423   N105    1.360   .     A
C423   N112    1.338   .     A
N105   C424    1.360   .     A
N105   Ni14    1.896   .     S
C424   N106    1.338   .     A
N106   C425    1.338   .     A
C425   N107    1.360   .     A
C425   C428    1.376   .     A
N107   C426    1.360   .     A
N107   Ni14    1.896   .     S
C426   C427    1.377   .     A
C426   N109    1.338   .     A
C427   C428    1.360   .     A
C427   C436    1.396   .     A
C428   C433    1.396   .     A
N108   C429    1.360   .     A
N108   C432    1.360   .     A
N108   Ni14    1.896   .     S
C429   N109    1.338   .     A
C429   C430    1.377   .     A
C430   C431    1.360   .     A
C430   C440    1.396   .     A
C431   C432    1.376   .     A
C431   C437    1.396   .     A
C432   N111    1.338   .     A
C433   C434    1.406   .     A
C433   H107    1.083   .     S
C434   C435    1.427   .     A
C434   O107    1.395   .     S
C435   C436    1.407   .     A
C435   O108    1.395   .     S
C436   H108    1.083   .     S
C437   C438    1.406   .     A
C437   H109    1.083   .     S
C438   C439    1.427   .     A
C438   O109    1.395   .     S
C439   C440    1.407   .     A
C439   O110    1.395   .     S
C440   H110    1.083   .     S
N110   C441    1.360   .     A
N110   C444    1.360   .     A
N110   Ni14    1.896   .     S
C441   N111    1.338   .     A
C441   C442    1.376   .     A
C442   C443    1.363   .     A
C442   C448    1.399   .     A
C443   C444    1.376   .     A
C443   C445    1.399   .     A
C444   N112    1.338   .     A
C445   C446    1.406   .     A
C445   H111    1.082   .     S
C446   C447    1.388   .     A
C446   O111    1.381   .     S
C447   C448    1.406   .     A
C447   O112    1.381   .     S
C448   H112    1.082   .     S
O105   Cu14    1.814   .     S
O106   Cu14    1.814   .     S
O107   Zn46    1.803   .     S
O108   Zn46    1.803   .     S
O109   Zn14    1.803   .     S
O110   Zn14    1.803   .     S
O111   Cu20    1.814   .     S
O112   Cu20    1.814   .     S
C449   C450    1.406   .     A
C449   C454    1.399   .     A
C449   H113    1.082   .     S
C450   C451    1.388   .     A
C450   O113    1.381   .     S
C451   C452    1.406   .     A
C451   O114    1.381   .     S
C452   C453    1.399   .     A
C452   H114    1.082   .     S
C453   C454    1.363   .     A
C453   C456    1.376   .     A
C454   C455    1.376   .     A
C455   N113    1.360   .     A
C455   N120    1.338   .     A
N113   C456    1.360   .     A
N113   Ni15    1.896   .     S
C456   N114    1.338   .     A
N114   C457    1.338   .     A
C457   N115    1.360   .     A
C457   C460    1.376   .     A
N115   C458    1.360   .     A
N115   Ni15    1.896   .     S
C458   C459    1.377   .     A
C458   N117    1.338   .     A
C459   C460    1.361   .     A
C459   C468    1.396   .     A
C460   C465    1.396   .     A
N116   C461    1.360   .     A
N116   C464    1.360   .     A
N116   Ni15    1.896   .     S
C461   N117    1.338   .     A
C461   C462    1.377   .     A
C462   C463    1.360   .     A
C462   C472    1.396   .     A
C463   C464    1.376   .     A
C463   C469    1.396   .     A
C464   N119    1.338   .     A
C465   C466    1.406   .     A
C465   H115    1.083   .     S
C466   C467    1.427   .     A
C466   O115    1.395   .     S
C467   C468    1.407   .     A
C467   O116    1.395   .     S
C468   H116    1.083   .     S
C469   C470    1.406   .     A
C469   H117    1.083   .     S
C470   C471    1.427   .     A
C470   O117    1.395   .     S
C471   C472    1.407   .     A
C471   O118    1.395   .     S
C472   H118    1.083   .     S
N118   C473    1.360   .     A
N118   C476    1.360   .     A
N118   Ni15    1.896   .     S
C473   N119    1.338   .     A
C473   C474    1.376   .     A
C474   C475    1.363   .     A
C474   C480    1.399   .     A
C475   C476    1.376   .     A
C475   C477    1.399   .     A
C476   N120    1.338   .     A
C477   C478    1.406   .     A
C477   H119    1.082   .     S
C478   C479    1.388   .     A
C478   O119    1.381   .     S
C479   C480    1.406   .     A
C479   O120    1.381   .     S
C480   H120    1.082   .     S
O113   Cu21    1.814   .     S
O114   Cu21    1.814   .     S
O115   Zn15    1.803   .     S
O116   Zn15    1.803   .     S
O117   Zn47    1.803   .     S
O118   Zn47    1.803   .     S
O119   Cu15    1.814   .     S
O120   Cu15    1.814   .     S
C481   C482    1.406   .     A
C481   C486    1.399   .     A
C481   H121    1.082   .     S
C482   C483    1.388   .     A
C482   O121    1.381   .     S
C483   C484    1.406   .     A
C483   O122    1.381   .     S
C484   C485    1.399   .     A
C484   H122    1.082   .     S
C485   C486    1.363   .     A
C485   C488    1.376   .     A
C486   C487    1.376   .     A
C487   N121    1.360   .     A
C487   N128    1.338   .     A
N121   C488    1.360   .     A
N121   Ni16    1.896   .     S
C488   N122    1.338   .     A
N122   C489    1.338   .     A
C489   N123    1.360   .     A
C489   C492    1.376   .     A
N123   C490    1.360   .     A
N123   Ni16    1.896   .     S
C490   C491    1.376   .     A
C490   N125    1.338   .     A
C491   C492    1.363   .     A
C491   C500    1.399   .     A
C492   C497    1.399   .     A
N124   C493    1.360   .     A
N124   C496    1.360   .     A
N124   Ni16    1.896   .     S
C493   N125    1.338   .     A
C493   C494    1.376   .     A
C494   C495    1.361   .     A
C494   C504    1.396   .     A
C495   C496    1.377   .     A
C495   C501    1.396   .     A
C496   N127    1.338   .     A
C497   C498    1.406   .     A
C497   H123    1.082   .     S
C498   C499    1.388   .     A
C498   O123    1.381   .     S
C499   C500    1.406   .     A
C499   O124    1.381   .     S
C500   H124    1.082   .     S
C501   C502    1.407   .     A
C501   H125    1.083   .     S
C502   C503    1.427   .     A
C502   O125    1.395   .     S
C503   C504    1.406   .     A
C503   O126    1.395   .     S
C504   H126    1.083   .     S
N126   C505    1.360   .     A
N126   C508    1.360   .     A
N126   Ni16    1.895   .     S
C505   N127    1.338   .     A
C505   C506    1.377   .     A
C506   C507    1.360   .     A
C506   C512    1.396   .     A
C507   C508    1.376   .     A
C507   C509    1.396   .     A
C508   N128    1.338   .     A
C509   C510    1.406   .     A
C509   H127    1.083   .     S
C510   C511    1.427   .     A
C510   O127    1.395   .     S
C511   C512    1.407   .     A
C511   O128    1.395   .     S
C512   H128    1.083   .     S
O121   Cu16    1.814   .     S
O122   Cu16    1.814   .     S
O123   Cu18    1.814   1_655 S
O124   Cu18    1.814   1_655 S
O125   Zn16    1.803   .     S
O126   Zn16    1.803   .     S
O127   Zn41    1.803   .     S
O128   Zn41    1.803   .     S
C513   C514    1.406   .     A
C513   C518    1.396   .     A
C513   H129    1.083   .     S
C514   C515    1.427   .     A
C514   O129    1.395   .     S
C515   C516    1.407   .     A
C515   O130    1.395   .     S
C516   C517    1.396   .     A
C516   H130    1.083   .     S
C517   C518    1.360   .     A
C517   C520    1.377   .     A
C518   C519    1.376   .     A
C519   N129    1.360   .     A
C519   N136    1.338   .     A
N129   C520    1.360   .     A
N129   Ni17    1.896   .     S
C520   N130    1.338   .     A
N130   C521    1.338   .     A
C521   N131    1.360   .     A
C521   C524    1.377   .     A
N131   C522    1.360   .     A
N131   Ni17    1.896   .     S
C522   C523    1.376   .     A
C522   N133    1.338   .     A
C523   C524    1.360   .     A
C523   C532    1.396   .     A
C524   C529    1.396   .     A
N132   C525    1.360   .     A
N132   C528    1.360   .     A
N132   Ni17    1.896   .     S
C525   N133    1.338   .     A
C525   C526    1.376   .     A
C526   C527    1.363   .     A
C526   C536    1.399   .     A
C527   C528    1.376   .     A
C527   C533    1.399   .     A
C528   N135    1.338   .     A
C529   C530    1.407   .     A
C529   H131    1.083   .     S
C530   C531    1.427   .     A
C530   O131    1.395   .     S
C531   C532    1.406   .     A
C531   O132    1.395   .     S
C532   H132    1.083   .     S
C533   C534    1.406   .     A
C533   H133    1.082   .     S
C534   C535    1.388   .     A
C534   O133    1.381   .     S
C535   C536    1.406   .     A
C535   O134    1.381   .     S
C536   H134    1.082   .     S
N134   C537    1.360   .     A
N134   C540    1.360   .     A
N134   Ni17    1.896   .     S
C537   N135    1.338   .     A
C537   C538    1.376   .     A
C538   C539    1.363   .     A
C538   C544    1.399   .     A
C539   C540    1.376   .     A
C539   C541    1.399   .     A
C540   N136    1.338   .     A
C541   C542    1.406   .     A
C541   H135    1.082   .     S
C542   C543    1.388   .     A
C542   O135    1.381   .     S
C543   C544    1.406   .     A
C543   O136    1.381   .     S
C544   H136    1.082   .     S
O129   Zn40    1.803   .     S
O130   Zn40    1.803   .     S
O131   Zn17    1.803   .     S
O132   Zn17    1.803   .     S
O133   Cu14    1.814   1_554 S
O134   Cu14    1.814   1_554 S
O135   Cu17    1.814   .     S
O136   Cu17    1.814   .     S
C545   C546    1.406   .     A
C545   C550    1.399   .     A
C545   H137    1.082   .     S
C546   C547    1.388   .     A
C546   O137    1.381   .     S
C547   C548    1.406   .     A
C547   O138    1.381   .     S
C548   C549    1.399   .     A
C548   H138    1.082   .     S
C549   C550    1.363   .     A
C549   C552    1.376   .     A
C550   C551    1.376   .     A
C551   N137    1.360   .     A
C551   N144    1.338   .     A
N137   C552    1.360   .     A
N137   Ni18    1.896   .     S
C552   N138    1.338   .     A
N138   C553    1.338   .     A
C553   N139    1.360   .     A
C553   C556    1.376   .     A
N139   C554    1.360   .     A
N139   Ni18    1.896   .     S
C554   C555    1.377   .     A
C554   N141    1.338   .     A
C555   C556    1.360   .     A
C555   C564    1.396   .     A
C556   C561    1.396   .     A
N140   C557    1.360   .     A
N140   C560    1.360   .     A
N140   Ni18    1.896   .     S
C557   N141    1.338   .     A
C557   C558    1.377   .     A
C558   C559    1.361   .     A
C558   C568    1.396   .     A
C559   C560    1.376   .     A
C559   C565    1.396   .     A
C560   N143    1.338   .     A
C561   C562    1.406   .     A
C561   H139    1.083   .     S
C562   C563    1.427   .     A
C562   O139    1.395   .     S
C563   C564    1.407   .     A
C563   O140    1.395   .     S
C564   H140    1.083   .     S
C565   C566    1.406   .     A
C565   H141    1.083   .     S
C566   C567    1.427   .     A
C566   O141    1.395   .     S
C567   C568    1.407   .     A
C567   O142    1.395   .     S
C568   H142    1.083   .     S
N142   C569    1.360   .     A
N142   C572    1.360   .     A
N142   Ni18    1.896   .     S
C569   N143    1.338   .     A
C569   C570    1.376   .     A
C570   C571    1.363   .     A
C570   C576    1.399   .     A
C571   C572    1.376   .     A
C571   C573    1.399   .     A
C572   N144    1.338   .     A
C573   C574    1.406   .     A
C573   H143    1.082   .     S
C574   C575    1.388   .     A
C574   O143    1.381   .     S
C575   C576    1.406   .     A
C575   O144    1.381   .     S
C576   H144    1.082   .     S
O137   Cu12    1.814   .     S
O138   Cu12    1.814   .     S
O139   Zn18    1.803   .     S
O140   Zn18    1.803   .     S
O141   Zn34    1.803   .     S
O142   Zn34    1.803   .     S
O143   Cu18    1.814   .     S
O144   Cu18    1.814   .     S
C577   C578    1.406   .     A
C577   C582    1.399   .     A
C577   H145    1.082   .     S
C578   C579    1.388   .     A
C578   O145    1.381   .     S
C579   C580    1.406   .     A
C579   O146    1.381   .     S
C580   C581    1.399   .     A
C580   H146    1.082   .     S
C581   C582    1.363   .     A
C581   C584    1.376   .     A
C582   C583    1.376   .     A
C583   N145    1.360   .     A
C583   N152    1.338   .     A
N145   C584    1.360   .     A
N145   Ni19    1.896   .     S
C584   N146    1.338   .     A
N146   C585    1.338   .     A
C585   N147    1.360   .     A
C585   C588    1.376   .     A
N147   C586    1.360   .     A
N147   Ni19    1.896   .     S
C586   C587    1.377   .     A
C586   N149    1.338   .     A
C587   C588    1.360   .     A
C587   C596    1.396   .     A
C588   C593    1.396   .     A
N148   C589    1.360   .     A
N148   C592    1.360   .     A
N148   Ni19    1.896   .     S
C589   N149    1.338   .     A
C589   C590    1.377   .     A
C590   C591    1.360   .     A
C590   C600    1.396   .     A
C591   C592    1.376   .     A
C591   C597    1.396   .     A
C592   N151    1.338   .     A
C593   C594    1.406   .     A
C593   H147    1.083   .     S
C594   C595    1.427   .     A
C594   O147    1.395   .     S
C595   C596    1.407   .     A
C595   O148    1.395   .     S
C596   H148    1.083   .     S
C597   C598    1.406   .     A
C597   H149    1.083   .     S
C598   C599    1.427   .     A
C598   O149    1.395   .     S
C599   C600    1.407   .     A
C599   O150    1.395   .     S
C600   H150    1.083   .     S
N150   C601    1.360   .     A
N150   C604    1.360   .     A
N150   Ni19    1.896   .     S
C601   N151    1.338   .     A
C601   C602    1.376   .     A
C602   C603    1.363   .     A
C602   C608    1.399   .     A
C603   C604    1.376   .     A
C603   C605    1.399   .     A
C604   N152    1.338   .     A
C605   C606    1.406   .     A
C605   H151    1.082   .     S
C606   C607    1.388   .     A
C606   O151    1.381   .     S
C607   C608    1.406   .     A
C607   O152    1.381   .     S
C608   H152    1.082   .     S
O145   Cu19    1.814   .     S
O146   Cu19    1.814   .     S
O147   Zn35    1.803   .     S
O148   Zn35    1.803   .     S
O149   Zn19    1.803   .     S
O150   Zn19    1.803   .     S
O151   Cu9     1.814   .     S
O152   Cu9     1.814   .     S
C609   C610    1.406   .     A
C609   C614    1.399   .     A
C609   H153    1.082   .     S
C610   C611    1.388   .     A
C610   O153    1.381   .     S
C611   C612    1.406   .     A
C611   O154    1.381   .     S
C612   C613    1.399   .     A
C612   H154    1.082   .     S
C613   C614    1.363   .     A
C613   C616    1.376   .     A
C614   C615    1.376   .     A
C615   N153    1.360   .     A
C615   N160    1.338   .     A
N153   C616    1.360   .     A
N153   Ni20    1.896   .     S
C616   N154    1.338   .     A
N154   C617    1.338   .     A
C617   N155    1.360   .     A
C617   C620    1.376   .     A
N155   C618    1.360   .     A
N155   Ni20    1.896   .     S
C618   C619    1.376   .     A
C618   N157    1.338   .     A
C619   C620    1.363   .     A
C619   C628    1.399   .     A
C620   C625    1.399   .     A
N156   C621    1.360   .     A
N156   C624    1.360   .     A
N156   Ni20    1.896   .     S
C621   N157    1.338   .     A
C621   C622    1.376   .     A
C622   C623    1.361   .     A
C622   C632    1.396   .     A
C623   C624    1.377   .     A
C623   C629    1.396   .     A
C624   N159    1.338   .     A
C625   C626    1.406   .     A
C625   H155    1.082   .     S
C626   C627    1.388   .     A
C626   O155    1.381   .     S
C627   C628    1.406   .     A
C627   O156    1.381   .     S
C628   H156    1.082   .     S
C629   C630    1.407   .     A
C629   H157    1.083   .     S
C630   C631    1.427   .     A
C630   O157    1.395   .     S
C631   C632    1.406   .     A
C631   O158    1.395   .     S
C632   H158    1.083   .     S
N158   C633    1.360   .     A
N158   C636    1.360   .     A
N158   Ni20    1.895   .     S
C633   N159    1.338   .     A
C633   C634    1.377   .     A
C634   C635    1.360   .     A
C634   C640    1.396   .     A
C635   C636    1.376   .     A
C635   C637    1.396   .     A
C636   N160    1.338   .     A
C637   C638    1.406   .     A
C637   H159    1.083   .     S
C638   C639    1.427   .     A
C638   O159    1.395   .     S
C639   C640    1.407   .     A
C639   O160    1.395   .     S
C640   H160    1.083   .     S
O153   Cu10    1.814   .     S
O154   Cu10    1.814   .     S
O155   Cu20    1.814   1_655 S
O156   Cu20    1.814   1_655 S
O157   Zn36    1.803   .     S
O158   Zn36    1.803   .     S
O159   Zn20    1.803   .     S
O160   Zn20    1.803   .     S
C641   C642    1.406   .     A
C641   C646    1.396   .     A
C641   H161    1.083   .     S
C642   C643    1.427   .     A
C642   O161    1.395   .     S
C643   C644    1.407   .     A
C643   O162    1.395   .     S
C644   C645    1.396   .     A
C644   H162    1.083   .     S
C645   C646    1.361   .     A
C645   C648    1.377   .     A
C646   C647    1.376   .     A
C647   N161    1.360   .     A
C647   N168    1.338   .     A
N161   C648    1.360   .     A
N161   Ni21    1.896   .     S
C648   N162    1.338   .     A
N162   C649    1.338   .     A
C649   N163    1.360   .     A
C649   C652    1.377   .     A
N163   C650    1.360   .     A
N163   Ni21    1.896   .     S
C650   C651    1.376   .     A
C650   N165    1.338   .     A
C651   C652    1.361   .     A
C651   C660    1.396   .     A
C652   C657    1.396   .     A
N164   C653    1.360   .     A
N164   C656    1.360   .     A
N164   Ni21    1.896   .     S
C653   N165    1.338   .     A
C653   C654    1.376   .     A
C654   C655    1.363   .     A
C654   C664    1.399   .     A
C655   C656    1.376   .     A
C655   C661    1.399   .     A
C656   N167    1.338   .     A
C657   C658    1.407   .     A
C657   H163    1.083   .     S
C658   C659    1.427   .     A
C658   O163    1.395   .     S
C659   C660    1.406   .     A
C659   O164    1.395   .     S
C660   H164    1.083   .     S
C661   C662    1.406   .     A
C661   H165    1.082   .     S
C662   C663    1.388   .     A
C662   O165    1.381   .     S
C663   C664    1.406   .     A
C663   O166    1.381   .     S
C664   H166    1.082   .     S
N166   C665    1.360   .     A
N166   C668    1.360   .     A
N166   Ni21    1.896   .     S
C665   N167    1.338   .     A
C665   C666    1.376   .     A
C666   C667    1.363   .     A
C666   C672    1.399   .     A
C667   C668    1.376   .     A
C667   C669    1.399   .     A
C668   N168    1.338   .     A
C669   C670    1.406   .     A
C669   H167    1.082   .     S
C670   C671    1.388   .     A
C670   O167    1.381   .     S
C671   C672    1.406   .     A
C671   O168    1.381   .     S
C672   H168    1.082   .     S
O161   Zn21    1.803   .     S
O162   Zn21    1.803   .     S
O163   Zn33    1.803   .     S
O164   Zn33    1.803   .     S
O165   Cu21    1.814   1_565 S
O166   Cu21    1.814   1_565 S
O167   Cu11    1.814   .     S
O168   Cu11    1.814   .     S
C673   C674    1.407   .     A
C673   C678    1.396   .     A
C673   H169    1.083   .     S
C674   C675    1.427   .     A
C674   O169    1.395   .     S
C675   C676    1.406   .     A
C675   O170    1.395   .     S
C676   C677    1.396   .     A
C676   H170    1.083   .     S
C677   C678    1.360   .     A
C677   C680    1.376   .     A
C678   C679    1.377   .     A
C679   N169    1.360   .     A
C679   N176    1.338   .     A
N169   C680    1.360   .     A
N169   Ni22    1.896   .     S
C680   N170    1.338   .     A
N170   C681    1.338   .     A
C681   N171    1.360   .     A
C681   C684    1.376   .     A
N171   C682    1.360   .     A
N171   Ni22    1.896   .     S
C682   C683    1.376   .     A
C682   N173    1.338   .     A
C683   C684    1.363   .     A
C683   C692    1.399   .     A
C684   C689    1.399   .     A
N172   C685    1.360   .     A
N172   C688    1.360   .     A
N172   Ni22    1.896   .     S
C685   N173    1.338   .     A
C685   C686    1.376   .     A
C686   C687    1.363   .     A
C686   C696    1.399   .     A
C687   C688    1.376   .     A
C687   C693    1.399   .     A
C688   N175    1.338   .     A
C689   C690    1.406   .     A
C689   H171    1.082   .     S
C690   C691    1.388   .     A
C690   O171    1.381   .     S
C691   C692    1.406   .     A
C691   O172    1.381   .     S
C692   H172    1.082   .     S
C693   C694    1.406   .     A
C693   H173    1.082   .     S
C694   C695    1.388   .     A
C694   O173    1.381   .     S
C695   C696    1.406   .     A
C695   O174    1.381   .     S
C696   H174    1.082   .     S
N174   C697    1.360   .     A
N174   C700    1.360   .     A
N174   Ni22    1.896   .     S
C697   N175    1.338   .     A
C697   C698    1.376   .     A
C698   C699    1.361   .     A
C698   C704    1.396   .     A
C699   C700    1.377   .     A
C699   C701    1.396   .     A
C700   N176    1.338   .     A
C701   C702    1.407   .     A
C701   H175    1.083   .     S
C702   C703    1.427   .     A
C702   O175    1.395   .     S
C703   C704    1.406   .     A
C703   O176    1.395   .     S
C704   H176    1.083   .     S
O169   Zn38    1.803   .     S
O170   Zn38    1.803   .     S
O171   Cu22    1.814   .     S
O172   Cu22    1.814   .     S
O173   Cu16    1.814   1_554 S
O174   Cu16    1.814   1_554 S
O175   Zn22    1.803   .     S
O176   Zn22    1.803   .     S
C705   C706    1.407   .     A
C705   C710    1.396   .     A
C705   H177    1.083   .     S
C706   C707    1.427   .     A
C706   O177    1.395   .     S
C707   C708    1.406   .     A
C707   O178    1.395   .     S
C708   C709    1.396   .     A
C708   H178    1.083   .     S
C709   C710    1.360   .     A
C709   C712    1.376   .     A
C710   C711    1.377   .     A
C711   N177    1.360   .     A
C711   N184    1.338   .     A
N177   C712    1.360   .     A
N177   Ni23    1.896   .     S
C712   N178    1.338   .     A
N178   C713    1.338   .     A
C713   N179    1.360   .     A
C713   C716    1.376   .     A
N179   C714    1.360   .     A
N179   Ni23    1.896   .     S
C714   C715    1.376   .     A
C714   N181    1.338   .     A
C715   C716    1.363   .     A
C715   C724    1.399   .     A
C716   C721    1.399   .     A
N180   C717    1.360   .     A
N180   C720    1.360   .     A
N180   Ni23    1.896   .     S
C717   N181    1.338   .     A
C717   C718    1.376   .     A
C718   C719    1.363   .     A
C718   C728    1.399   .     A
C719   C720    1.376   .     A
C719   C725    1.399   .     A
C720   N183    1.338   .     A
C721   C722    1.406   .     A
C721   H179    1.082   .     S
C722   C723    1.388   .     A
C722   O179    1.381   .     S
C723   C724    1.406   .     A
C723   O180    1.381   .     S
C724   H180    1.082   .     S
C725   C726    1.406   .     A
C725   H181    1.082   .     S
C726   C727    1.388   .     A
C726   O181    1.381   .     S
C727   C728    1.406   .     A
C727   O182    1.381   .     S
C728   H182    1.082   .     S
N182   C729    1.360   .     A
N182   C732    1.360   .     A
N182   Ni23    1.895   .     S
C729   N183    1.338   .     A
C729   C730    1.376   .     A
C730   C731    1.360   .     A
C730   C736    1.396   .     A
C731   C732    1.377   .     A
C731   C733    1.396   .     A
C732   N184    1.338   .     A
C733   C734    1.407   .     A
C733   H183    1.083   .     S
C734   C735    1.427   .     A
C734   O183    1.395   .     S
C735   C736    1.406   .     A
C735   O184    1.395   .     S
C736   H184    1.083   .     S
O177   Zn39    1.803   .     S
O178   Zn39    1.803   .     S
O179   Cu23    1.814   1_565 S
O180   Cu23    1.814   1_565 S
O181   Cu13    1.814   1_554 S
O182   Cu13    1.814   1_554 S
O183   Zn23    1.803   .     S
O184   Zn23    1.803   .     S
C737   C738    1.406   .     A
C737   C742    1.396   .     A
C737   H185    1.083   .     S
C738   C739    1.427   .     A
C738   O185    1.395   .     S
C739   C740    1.407   .     A
C739   O186    1.395   .     S
C740   C741    1.396   .     A
C740   H186    1.083   .     S
C741   C742    1.360   .     A
C741   C744    1.377   .     A
C742   C743    1.376   .     A
C743   N185    1.360   .     A
C743   N192    1.338   .     A
N185   C744    1.360   .     A
N185   Ni24    1.896   .     S
C744   N186    1.338   .     A
N186   C745    1.338   .     A
C745   N187    1.360   .     A
C745   C748    1.377   .     A
N187   C746    1.360   .     A
N187   Ni24    1.896   .     S
C746   C747    1.376   .     A
C746   N189    1.338   .     A
C747   C748    1.360   .     A
C747   C756    1.396   .     A
C748   C753    1.396   .     A
N188   C749    1.360   .     A
N188   C752    1.360   .     A
N188   Ni24    1.896   .     S
C749   N189    1.338   .     A
C749   C750    1.376   .     A
C750   C751    1.363   .     A
C750   C760    1.399   .     A
C751   C752    1.376   .     A
C751   C757    1.399   .     A
C752   N191    1.338   .     A
C753   C754    1.407   .     A
C753   H187    1.083   .     S
C754   C755    1.427   .     A
C754   O187    1.395   .     S
C755   C756    1.406   .     A
C755   O188    1.395   .     S
C756   H188    1.083   .     S
C757   C758    1.406   .     A
C757   H189    1.082   .     S
C758   C759    1.388   .     A
C758   O189    1.381   .     S
C759   C760    1.406   .     A
C759   O190    1.381   .     S
C760   H190    1.082   .     S
N190   C761    1.360   .     A
N190   C764    1.360   .     A
N190   Ni24    1.896   .     S
C761   N191    1.338   .     A
C761   C762    1.376   .     A
C762   C763    1.363   .     A
C762   C768    1.399   .     A
C763   C764    1.376   .     A
C763   C765    1.399   .     A
C764   N192    1.338   .     A
C765   C766    1.406   .     A
C765   H191    1.082   .     S
C766   C767    1.388   .     A
C766   O191    1.381   .     S
C767   C768    1.406   .     A
C767   O192    1.381   .     S
C768   H192    1.082   .     S
O185   Zn37    1.803   .     S
O186   Zn37    1.803   .     S
O187   Zn24    1.803   .     S
O188   Zn24    1.803   .     S
O189   Cu15    1.814   1_554 S
O190   Cu15    1.814   1_554 S
O191   Cu24    1.814   .     S
O192   Cu24    1.814   .     S
C769   C770    1.406   .     A
C769   C774    1.396   .     A
C769   H193    1.083   .     S
C770   C771    1.427   .     A
C770   O193    1.395   .     S
C771   C772    1.407   .     A
C771   O194    1.395   .     S
C772   C773    1.396   .     A
C772   H194    1.083   .     S
C773   C774    1.360   .     A
C773   C776    1.377   .     A
C774   C775    1.376   .     A
C775   N193    1.360   .     A
C775   N200    1.338   .     A
N193   C776    1.360   .     A
N193   Ni25    1.896   .     S
C776   N194    1.338   .     A
N194   C777    1.338   .     A
C777   N195    1.360   .     A
C777   C780    1.377   .     A
N195   C778    1.360   .     A
N195   Ni25    1.896   .     S
C778   C779    1.376   .     A
C778   N197    1.338   .     A
C779   C780    1.360   .     A
C779   C788    1.396   .     A
C780   C785    1.396   .     A
N196   C781    1.360   .     A
N196   C784    1.360   .     A
N196   Ni25    1.896   .     S
C781   N197    1.338   .     A
C781   C782    1.376   .     A
C782   C783    1.363   .     A
C782   C792    1.399   .     A
C783   C784    1.376   .     A
C783   C789    1.399   .     A
C784   N199    1.338   .     A
C785   C786    1.407   .     A
C785   H195    1.083   .     S
C786   C787    1.427   .     A
C786   O195    1.395   .     S
C787   C788    1.406   .     A
C787   O196    1.395   .     S
C788   H196    1.083   .     S
C789   C790    1.406   .     A
C789   H197    1.082   .     S
C790   C791    1.388   .     A
C790   O197    1.381   .     S
C791   C792    1.406   .     A
C791   O198    1.381   .     S
C792   H198    1.082   .     S
N198   C793    1.360   .     A
N198   C796    1.360   .     A
N198   Ni25    1.896   .     S
C793   N199    1.338   .     A
C793   C794    1.376   .     A
C794   C795    1.363   .     A
C794   C800    1.399   .     A
C795   C796    1.376   .     A
C795   C797    1.399   .     A
C796   N200    1.338   .     A
C797   C798    1.406   .     A
C797   H199    1.082   .     S
C798   C799    1.388   .     A
C798   O199    1.381   .     S
C799   C800    1.406   .     A
C799   O200    1.381   .     S
C800   H200    1.082   .     S
O193   Zn21    1.803   .     S
O194   Zn21    1.803   .     S
O195   Zn41    1.803   .     S
O196   Zn41    1.803   .     S
O197   Cu25    1.814   .     S
O198   Cu25    1.814   .     S
O199   Cu26    1.814   .     S
O200   Cu26    1.814   .     S
C801   C802    1.407   .     A
C801   C806    1.396   .     A
C801   H201    1.083   .     S
C802   C803    1.427   .     A
C802   O201    1.395   .     S
C803   C804    1.406   .     A
C803   O202    1.395   .     S
C804   C805    1.396   .     A
C804   H202    1.083   .     S
C805   C806    1.360   .     A
C805   C808    1.376   .     A
C806   C807    1.377   .     A
C807   N201    1.360   .     A
C807   N208    1.338   .     A
N201   C808    1.360   .     A
N201   Ni26    1.896   .     S
C808   N202    1.338   .     A
N202   C809    1.338   .     A
C809   N203    1.360   .     A
C809   C812    1.376   .     A
N203   C810    1.360   .     A
N203   Ni26    1.896   .     S
C810   C811    1.376   .     A
C810   N205    1.338   .     A
C811   C812    1.363   .     A
C811   C820    1.399   .     A
C812   C817    1.399   .     A
N204   C813    1.360   .     A
N204   C816    1.360   .     A
N204   Ni26    1.896   .     S
C813   N205    1.338   .     A
C813   C814    1.376   .     A
C814   C815    1.363   .     A
C814   C824    1.399   .     A
C815   C816    1.376   .     A
C815   C821    1.399   .     A
C816   N207    1.338   .     A
C817   C818    1.406   .     A
C817   H203    1.082   .     S
C818   C819    1.388   .     A
C818   O203    1.381   .     S
C819   C820    1.406   .     A
C819   O204    1.381   .     S
C820   H204    1.082   .     S
C821   C822    1.406   .     A
C821   H205    1.082   .     S
C822   C823    1.388   .     A
C822   O205    1.381   .     S
C823   C824    1.406   .     A
C823   O206    1.381   .     S
C824   H206    1.082   .     S
N206   C825    1.360   .     A
N206   C828    1.360   .     A
N206   Ni26    1.896   .     S
C825   N207    1.338   .     A
C825   C826    1.376   .     A
C826   C827    1.360   .     A
C826   C832    1.396   .     A
C827   C828    1.377   .     A
C827   C829    1.396   .     A
C828   N208    1.338   .     A
C829   C830    1.407   .     A
C829   H207    1.083   .     S
C830   C831    1.427   .     A
C830   O207    1.395   .     S
C831   C832    1.406   .     A
C831   O208    1.395   .     S
C832   H208    1.083   .     S
O201   Zn48    1.803   .     S
O202   Zn48    1.803   .     S
O203   Cu26    1.814   .     S
O204   Cu26    1.814   .     S
O205   Cu27    1.814   .     S
O206   Cu27    1.814   .     S
O207   Zn18    1.803   .     S
O208   Zn18    1.803   .     S
C833   C834    1.406   .     A
C833   C838    1.399   .     A
C833   H209    1.082   .     S
C834   C835    1.388   .     A
C834   O209    1.381   .     S
C835   C836    1.406   .     A
C835   O210    1.381   .     S
C836   C837    1.399   .     A
C836   H210    1.082   .     S
C837   C838    1.363   .     A
C837   C840    1.376   .     A
C838   C839    1.376   .     A
C839   N209    1.360   .     A
C839   N216    1.338   .     A
N209   C840    1.360   .     A
N209   Ni27    1.896   .     S
C840   N210    1.338   .     A
N210   C841    1.338   .     A
C841   N211    1.360   .     A
C841   C844    1.376   .     A
N211   C842    1.360   .     A
N211   Ni27    1.896   .     S
C842   C843    1.376   .     A
C842   N213    1.338   .     A
C843   C844    1.363   .     A
C843   C852    1.399   .     A
C844   C849    1.399   .     A
N212   C845    1.360   .     A
N212   C848    1.360   .     A
N212   Ni27    1.895   .     S
C845   N213    1.338   .     A
C845   C846    1.376   .     A
C846   C847    1.361   .     A
C846   C856    1.396   .     A
C847   C848    1.377   .     A
C847   C853    1.396   .     A
C848   N215    1.338   .     A
C849   C850    1.406   .     A
C849   H211    1.082   .     S
C850   C851    1.388   .     A
C850   O211    1.381   .     S
C851   C852    1.406   .     A
C851   O212    1.381   .     S
C852   H212    1.082   .     S
C853   C854    1.407   .     A
C853   H213    1.083   .     S
C854   C855    1.427   .     A
C854   O213    1.395   .     S
C855   C856    1.406   .     A
C855   O214    1.395   .     S
C856   H214    1.083   .     S
N214   C857    1.360   .     A
N214   C860    1.360   .     A
N214   Ni27    1.896   .     S
C857   N215    1.338   .     A
C857   C858    1.377   .     A
C858   C859    1.361   .     A
C858   C864    1.396   .     A
C859   C860    1.376   .     A
C859   C861    1.396   .     A
C860   N216    1.338   .     A
C861   C862    1.406   .     A
C861   H215    1.083   .     S
C862   C863    1.427   .     A
C862   O215    1.395   .     S
C863   C864    1.407   .     A
C863   O216    1.395   .     S
C864   H216    1.083   .     S
O209   Cu27    1.814   .     S
O210   Cu27    1.814   .     S
O211   Cu28    1.814   .     S
O212   Cu28    1.814   .     S
O213   Zn19    1.803   .     S
O214   Zn19    1.803   .     S
O215   Zn46    1.803   .     S
O216   Zn46    1.803   .     S
C865   C866    1.406   .     A
C865   C870    1.399   .     A
C865   H217    1.082   .     S
C866   C867    1.388   .     A
C866   O217    1.381   .     S
C867   C868    1.406   .     A
C867   O218    1.381   .     S
C868   C869    1.399   .     A
C868   H218    1.082   .     S
C869   C870    1.363   .     A
C869   C872    1.376   .     A
C870   C871    1.376   .     A
C871   N217    1.360   .     A
C871   N224    1.338   .     A
N217   C872    1.360   .     A
N217   Ni28    1.896   .     S
C872   N218    1.338   .     A
N218   C873    1.338   .     A
C873   N219    1.360   .     A
C873   C876    1.376   .     A
N219   C874    1.360   .     A
N219   Ni28    1.896   .     S
C874   C875    1.377   .     A
C874   N221    1.338   .     A
C875   C876    1.360   .     A
C875   C884    1.396   .     A
C876   C881    1.396   .     A
N220   C877    1.360   .     A
N220   C880    1.360   .     A
N220   Ni28    1.896   .     S
C877   N221    1.338   .     A
C877   C878    1.377   .     A
C878   C879    1.360   .     A
C878   C888    1.396   .     A
C879   C880    1.376   .     A
C879   C885    1.396   .     A
C880   N223    1.338   .     A
C881   C882    1.406   .     A
C881   H219    1.083   .     S
C882   C883    1.427   .     A
C882   O219    1.395   .     S
C883   C884    1.407   .     A
C883   O220    1.395   .     S
C884   H220    1.083   .     S
C885   C886    1.406   .     A
C885   H221    1.083   .     S
C886   C887    1.427   .     A
C886   O221    1.395   .     S
C887   C888    1.407   .     A
C887   O222    1.395   .     S
C888   H222    1.083   .     S
N222   C889    1.360   .     A
N222   C892    1.360   .     A
N222   Ni28    1.896   .     S
C889   N223    1.338   .     A
C889   C890    1.376   .     A
C890   C891    1.363   .     A
C890   C896    1.399   .     A
C891   C892    1.376   .     A
C891   C893    1.399   .     A
C892   N224    1.338   .     A
C893   C894    1.406   .     A
C893   H223    1.082   .     S
C894   C895    1.388   .     A
C894   O223    1.381   .     S
C895   C896    1.406   .     A
C895   O224    1.381   .     S
C896   H224    1.082   .     S
O217   Cu25    1.814   .     S
O218   Cu25    1.814   .     S
O219   Zn20    1.803   .     S
O220   Zn20    1.803   .     S
O221   Zn47    1.803   .     S
O222   Zn47    1.803   .     S
O223   Cu28    1.814   .     S
O224   Cu28    1.814   .     S
C897   C898    1.406   .     A
C897   C902    1.399   .     A
C897   H225    1.082   .     S
C898   C899    1.388   .     A
C898   O225    1.381   .     S
C899   C900    1.406   .     A
C899   O226    1.381   .     S
C900   C901    1.399   .     A
C900   H226    1.082   .     S
C901   C902    1.363   .     A
C901   C904    1.376   .     A
C902   C903    1.376   .     A
C903   N225    1.360   .     A
C903   N232    1.338   .     A
N225   C904    1.360   .     A
N225   Ni29    1.896   .     S
C904   N226    1.338   .     A
N226   C905    1.338   .     A
C905   N227    1.360   .     A
C905   C908    1.376   .     A
N227   C906    1.360   .     A
N227   Ni29    1.896   .     S
C906   C907    1.377   .     A
C906   N229    1.338   .     A
C907   C908    1.360   .     A
C907   C916    1.396   .     A
C908   C913    1.396   .     A
N228   C909    1.360   .     A
N228   C912    1.360   .     A
N228   Ni29    1.896   .     S
C909   N229    1.338   .     A
C909   C910    1.377   .     A
C910   C911    1.361   .     A
C910   C920    1.396   .     A
C911   C912    1.376   .     A
C911   C917    1.396   .     A
C912   N231    1.338   .     A
C913   C914    1.406   .     A
C913   H227    1.083   .     S
C914   C915    1.427   .     A
C914   O227    1.395   .     S
C915   C916    1.407   .     A
C915   O228    1.395   .     S
C916   H228    1.083   .     S
C917   C918    1.406   .     A
C917   H229    1.083   .     S
C918   C919    1.427   .     A
C918   O229    1.395   .     S
C919   C920    1.407   .     A
C919   O230    1.395   .     S
C920   H230    1.083   .     S
N230   C921    1.360   .     A
N230   C924    1.360   .     A
N230   Ni29    1.896   .     S
C921   N231    1.338   .     A
C921   C922    1.376   .     A
C922   C923    1.363   .     A
C922   C928    1.399   .     A
C923   C924    1.376   .     A
C923   C925    1.399   .     A
C924   N232    1.338   .     A
C925   C926    1.406   .     A
C925   H231    1.082   .     S
C926   C927    1.388   .     A
C926   O231    1.381   .     S
C927   C928    1.406   .     A
C927   O232    1.381   .     S
C928   H232    1.082   .     S
O225   Cu29    1.814   .     S
O226   Cu29    1.814   .     S
O227   Zn42    1.803   .     S
O228   Zn42    1.803   .     S
O229   Zn24    1.803   .     S
O230   Zn24    1.803   .     S
O231   Cu32    1.814   .     S
O232   Cu32    1.814   .     S
C929   C930    1.406   .     A
C929   C934    1.396   .     A
C929   H233    1.083   .     S
C930   C931    1.427   .     A
C930   O233    1.395   .     S
C931   C932    1.407   .     A
C931   O234    1.395   .     S
C932   C933    1.396   .     A
C932   H234    1.083   .     S
C933   C934    1.360   .     A
C933   C936    1.377   .     A
C934   C935    1.376   .     A
C935   N233    1.360   .     A
C935   N240    1.338   .     A
N233   C936    1.360   .     A
N233   Ni30    1.896   .     S
C936   N234    1.338   .     A
N234   C937    1.338   .     A
C937   N235    1.360   .     A
C937   C940    1.377   .     A
N235   C938    1.360   .     A
N235   Ni30    1.896   .     S
C938   C939    1.376   .     A
C938   N237    1.338   .     A
C939   C940    1.360   .     A
C939   C948    1.396   .     A
C940   C945    1.396   .     A
N236   C941    1.360   .     A
N236   C944    1.360   .     A
N236   Ni30    1.896   .     S
C941   N237    1.338   .     A
C941   C942    1.376   .     A
C942   C943    1.363   .     A
C942   C952    1.399   .     A
C943   C944    1.376   .     A
C943   C949    1.399   .     A
C944   N239    1.338   .     A
C945   C946    1.407   .     A
C945   H235    1.083   .     S
C946   C947    1.427   .     A
C946   O235    1.395   .     S
C947   C948    1.406   .     A
C947   O236    1.395   .     S
C948   H236    1.083   .     S
C949   C950    1.406   .     A
C949   H237    1.082   .     S
C950   C951    1.388   .     A
C950   O237    1.381   .     S
C951   C952    1.406   .     A
C951   O238    1.381   .     S
C952   H238    1.082   .     S
N238   C953    1.360   .     A
N238   C956    1.360   .     A
N238   Ni30    1.896   .     S
C953   N239    1.338   .     A
C953   C954    1.376   .     A
C954   C955    1.363   .     A
C954   C960    1.399   .     A
C955   C956    1.376   .     A
C955   C957    1.399   .     A
C956   N240    1.338   .     A
C957   C958    1.406   .     A
C957   H239    1.082   .     S
C958   C959    1.388   .     A
C958   O239    1.381   .     S
C959   C960    1.406   .     A
C959   O240    1.381   .     S
C960   H240    1.082   .     S
O233   Zn43    1.803   .     S
O234   Zn43    1.803   .     S
O235   Zn22    1.803   .     S
O236   Zn22    1.803   .     S
O237   Cu29    1.814   .     S
O238   Cu29    1.814   .     S
O239   Cu30    1.814   .     S
O240   Cu30    1.814   .     S
C961   C962    1.407   .     A
C961   C966    1.396   .     A
C961   H241    1.083   .     S
C962   C963    1.427   .     A
C962   O241    1.395   .     S
C963   C964    1.406   .     A
C963   O242    1.395   .     S
C964   C965    1.396   .     A
C964   H242    1.083   .     S
C965   C966    1.360   .     A
C965   C968    1.376   .     A
C966   C967    1.377   .     A
C967   N241    1.360   .     A
C967   N248    1.338   .     A
N241   C968    1.360   .     A
N241   Ni31    1.896   .     S
C968   N242    1.338   .     A
N242   C969    1.338   .     A
C969   N243    1.360   .     A
C969   C972    1.376   .     A
N243   C970    1.360   .     A
N243   Ni31    1.896   .     S
C970   C971    1.376   .     A
C970   N245    1.338   .     A
C971   C972    1.363   .     A
C971   C980    1.399   .     A
C972   C977    1.399   .     A
N244   C973    1.360   .     A
N244   C976    1.360   .     A
N244   Ni31    1.896   .     S
C973   N245    1.338   .     A
C973   C974    1.376   .     A
C974   C975    1.363   .     A
C974   C984    1.399   .     A
C975   C976    1.376   .     A
C975   C981    1.399   .     A
C976   N247    1.338   .     A
C977   C978    1.406   .     A
C977   H243    1.082   .     S
C978   C979    1.388   .     A
C978   O243    1.381   .     S
C979   C980    1.406   .     A
C979   O244    1.381   .     S
C980   H244    1.082   .     S
C981   C982    1.406   .     A
C981   H245    1.082   .     S
C982   C983    1.388   .     A
C982   O245    1.381   .     S
C983   C984    1.406   .     A
C983   O246    1.381   .     S
C984   H246    1.082   .     S
N246   C985    1.360   .     A
N246   C988    1.360   .     A
N246   Ni31    1.896   .     S
C985   N247    1.338   .     A
C985   C986    1.376   .     A
C986   C987    1.361   .     A
C986   C992    1.396   .     A
C987   C988    1.377   .     A
C987   C989    1.396   .     A
C988   N248    1.338   .     A
C989   C990    1.407   .     A
C989   H247    1.083   .     S
C990   C991    1.427   .     A
C990   O247    1.395   .     S
C991   C992    1.406   .     A
C991   O248    1.395   .     S
C992   H248    1.083   .     S
O241   Zn23    1.803   .     S
O242   Zn23    1.803   .     S
O243   Cu30    1.814   .     S
O244   Cu30    1.814   .     S
O245   Cu31    1.814   .     S
O246   Cu31    1.814   .     S
O247   Zn44    1.803   .     S
O248   Zn44    1.803   .     S
C993   C994    1.406   .     A
C993   C998    1.399   .     A
C993   H249    1.082   .     S
C994   C995    1.388   .     A
C994   O249    1.381   .     S
C995   C996    1.406   .     A
C995   O250    1.381   .     S
C996   C997    1.399   .     A
C996   H250    1.082   .     S
C997   C998    1.363   .     A
C997   C1000   1.376   .     A
C998   C999    1.376   .     A
C999   N249    1.360   .     A
C999   N256    1.338   .     A
N249   C1000   1.360   .     A
N249   Ni32    1.896   .     S
C1000  N250    1.338   .     A
N250   C1001   1.338   .     A
C1001  N251    1.360   .     A
C1001  C1004   1.376   .     A
N251   C1002   1.360   .     A
N251   Ni32    1.896   .     S
C1002  C1003   1.376   .     A
C1002  N253    1.338   .     A
C1003  C1004   1.363   .     A
C1003  C1012   1.399   .     A
C1004  C1009   1.399   .     A
N252   C1005   1.360   .     A
N252   C1008   1.360   .     A
N252   Ni32    1.895   .     S
C1005  N253    1.338   .     A
C1005  C1006   1.376   .     A
C1006  C1007   1.360   .     A
C1006  C1016   1.396   .     A
C1007  C1008   1.377   .     A
C1007  C1013   1.396   .     A
C1008  N255    1.338   .     A
C1009  C1010   1.406   .     A
C1009  H251    1.082   .     S
C1010  C1011   1.388   .     A
C1010  O251    1.381   .     S
C1011  C1012   1.406   .     A
C1011  O252    1.381   .     S
C1012  H252    1.082   .     S
C1013  C1014   1.407   .     A
C1013  H253    1.083   .     S
C1014  C1015   1.427   .     A
C1014  O253    1.395   .     S
C1015  C1016   1.406   .     A
C1015  O254    1.395   .     S
C1016  H254    1.083   .     S
N254   C1017   1.360   .     A
N254   C1020   1.360   .     A
N254   Ni32    1.896   .     S
C1017  N255    1.338   .     A
C1017  C1018   1.377   .     A
C1018  C1019   1.361   .     A
C1018  C1024   1.396   .     A
C1019  C1020   1.376   .     A
C1019  C1021   1.396   .     A
C1020  N256    1.338   .     A
C1021  C1022   1.406   .     A
C1021  H255    1.083   .     S
C1022  C1023   1.427   .     A
C1022  O255    1.395   .     S
C1023  C1024   1.407   .     A
C1023  O256    1.395   .     S
C1024  H256    1.083   .     S
O249   Cu31    1.814   .     S
O250   Cu31    1.814   .     S
O251   Cu32    1.814   .     S
O252   Cu32    1.814   .     S
O253   Zn45    1.803   .     S
O254   Zn45    1.803   .     S
O255   Zn17    1.803   .     S
O256   Zn17    1.803   .     S
C1025  C1026   1.406   .     A
C1025  C1030   1.399   .     A
C1025  H257    1.082   .     S
C1026  C1027   1.388   .     A
C1026  O257    1.381   .     S
C1027  C1028   1.406   .     A
C1027  O258    1.381   .     S
C1028  C1029   1.399   .     A
C1028  H258    1.082   .     S
C1029  C1030   1.363   .     A
C1029  C1032   1.376   .     A
C1030  C1031   1.376   .     A
C1031  N257    1.360   .     A
C1031  N264    1.338   .     A
N257   C1032   1.360   .     A
N257   Ni33    1.896   .     S
C1032  N258    1.338   .     A
N258   C1033   1.338   .     A
C1033  N259    1.360   .     A
C1033  C1036   1.376   .     A
N259   C1034   1.360   .     A
N259   Ni33    1.896   .     S
C1034  C1035   1.376   .     A
C1034  N261    1.338   .     A
C1035  C1036   1.363   .     A
C1035  C1044   1.399   .     A
C1036  C1041   1.399   .     A
N260   C1037   1.360   .     A
N260   C1040   1.360   .     A
N260   Ni33    1.896   .     S
C1037  N261    1.338   .     A
C1037  C1038   1.376   .     A
C1038  C1039   1.360   .     A
C1038  C1048   1.396   .     A
C1039  C1040   1.377   .     A
C1039  C1045   1.396   .     A
C1040  N263    1.338   .     A
C1041  C1042   1.406   .     A
C1041  H259    1.082   .     S
C1042  C1043   1.388   .     A
C1042  O259    1.381   .     S
C1043  C1044   1.406   .     A
C1043  O260    1.381   .     S
C1044  H260    1.082   .     S
C1045  C1046   1.407   .     A
C1045  H261    1.083   .     S
C1046  C1047   1.427   .     A
C1046  O261    1.395   .     S
C1047  C1048   1.406   .     A
C1047  O262    1.395   .     S
C1048  H262    1.083   .     S
N262   C1049   1.360   .     A
N262   C1052   1.360   .     A
N262   Ni33    1.896   .     S
C1049  N263    1.338   .     A
C1049  C1050   1.377   .     A
C1050  C1051   1.360   .     A
C1050  C1056   1.396   .     A
C1051  C1052   1.376   .     A
C1051  C1053   1.396   .     A
C1052  N264    1.338   .     A
C1053  C1054   1.406   .     A
C1053  H263    1.083   .     S
C1054  C1055   1.427   .     A
C1054  O263    1.395   .     S
C1055  C1056   1.407   .     A
C1055  O264    1.395   .     S
C1056  H264    1.083   .     S
O257   Cu47    1.814   .     S
O258   Cu47    1.814   .     S
O259   Cu33    1.814   .     S
O260   Cu33    1.814   .     S
O261   Zn25    1.803   .     S
O262   Zn25    1.803   .     S
O263   Zn16    1.803   .     S
O264   Zn16    1.803   .     S
C1057  C1058   1.407   .     A
C1057  C1062   1.396   .     A
C1057  H265    1.083   .     S
C1058  C1059   1.427   .     A
C1058  O265    1.395   .     S
C1059  C1060   1.406   .     A
C1059  O266    1.395   .     S
C1060  C1061   1.396   .     A
C1060  H266    1.083   .     S
C1061  C1062   1.361   .     A
C1061  C1064   1.376   .     A
C1062  C1063   1.377   .     A
C1063  N265    1.360   .     A
C1063  N272    1.338   .     A
N265   C1064   1.360   .     A
N265   Ni34    1.896   .     S
C1064  N266    1.338   .     A
N266   C1065   1.338   .     A
C1065  N267    1.360   .     A
C1065  C1068   1.376   .     A
N267   C1066   1.360   .     A
N267   Ni34    1.896   .     S
C1066  C1067   1.376   .     A
C1066  N269    1.338   .     A
C1067  C1068   1.363   .     A
C1067  C1076   1.399   .     A
C1068  C1073   1.399   .     A
N268   C1069   1.360   .     A
N268   C1072   1.360   .     A
N268   Ni34    1.896   .     S
C1069  N269    1.338   .     A
C1069  C1070   1.376   .     A
C1070  C1071   1.363   .     A
C1070  C1080   1.399   .     A
C1071  C1072   1.376   .     A
C1071  C1077   1.399   .     A
C1072  N271    1.338   .     A
C1073  C1074   1.406   .     A
C1073  H267    1.082   .     S
C1074  C1075   1.388   .     A
C1074  O267    1.381   .     S
C1075  C1076   1.406   .     A
C1075  O268    1.381   .     S
C1076  H268    1.082   .     S
C1077  C1078   1.406   .     A
C1077  H269    1.082   .     S
C1078  C1079   1.388   .     A
C1078  O269    1.381   .     S
C1079  C1080   1.406   .     A
C1079  O270    1.381   .     S
C1080  H270    1.082   .     S
N270   C1081   1.360   .     A
N270   C1084   1.360   .     A
N270   Ni34    1.896   .     S
C1081  N271    1.338   .     A
C1081  C1082   1.376   .     A
C1082  C1083   1.360   .     A
C1082  C1088   1.396   .     A
C1083  C1084   1.377   .     A
C1083  C1085   1.396   .     A
C1084  N272    1.338   .     A
C1085  C1086   1.407   .     A
C1085  H271    1.083   .     S
C1086  C1087   1.427   .     A
C1086  O271    1.395   .     S
C1087  C1088   1.406   .     A
C1087  O272    1.395   .     S
C1088  H272    1.083   .     S
O265   Zn13    1.803   .     S
O266   Zn13    1.803   .     S
O267   Cu41    1.814   .     S
O268   Cu41    1.814   .     S
O269   Cu34    1.814   .     S
O270   Cu34    1.814   .     S
O271   Zn26    1.803   .     S
O272   Zn26    1.803   .     S
C1089  C1090   1.407   .     A
C1089  C1094   1.396   .     A
C1089  H273    1.083   .     S
C1090  C1091   1.427   .     A
C1090  O273    1.395   .     S
C1091  C1092   1.406   .     A
C1091  O274    1.395   .     S
C1092  C1093   1.396   .     A
C1092  H274    1.083   .     S
C1093  C1094   1.361   .     A
C1093  C1096   1.376   .     A
C1094  C1095   1.377   .     A
C1095  N273    1.360   .     A
C1095  N280    1.338   .     A
N273   C1096   1.360   .     A
N273   Ni35    1.896   .     S
C1096  N274    1.338   .     A
N274   C1097   1.338   .     A
C1097  N275    1.360   .     A
C1097  C1100   1.376   .     A
N275   C1098   1.360   .     A
N275   Ni35    1.896   .     S
C1098  C1099   1.376   .     A
C1098  N277    1.338   .     A
C1099  C1100   1.363   .     A
C1099  C1108   1.399   .     A
C1100  C1105   1.399   .     A
N276   C1101   1.360   .     A
N276   C1104   1.360   .     A
N276   Ni35    1.896   .     S
C1101  N277    1.338   .     A
C1101  C1102   1.376   .     A
C1102  C1103   1.363   .     A
C1102  C1112   1.399   .     A
C1103  C1104   1.376   .     A
C1103  C1109   1.399   .     A
C1104  N279    1.338   .     A
C1105  C1106   1.406   .     A
C1105  H275    1.082   .     S
C1106  C1107   1.388   .     A
C1106  O275    1.381   .     S
C1107  C1108   1.406   .     A
C1107  O276    1.381   .     S
C1108  H276    1.082   .     S
C1109  C1110   1.406   .     A
C1109  H277    1.082   .     S
C1110  C1111   1.388   .     A
C1110  O277    1.381   .     S
C1111  C1112   1.406   .     A
C1111  O278    1.381   .     S
C1112  H278    1.082   .     S
N278   C1113   1.360   .     A
N278   C1116   1.360   .     A
N278   Ni35    1.896   .     S
C1113  N279    1.338   .     A
C1113  C1114   1.376   .     A
C1114  C1115   1.361   .     A
C1114  C1120   1.396   .     A
C1115  C1116   1.377   .     A
C1115  C1117   1.396   .     A
C1116  N280    1.338   .     A
C1117  C1118   1.407   .     A
C1117  H279    1.083   .     S
C1118  C1119   1.427   .     A
C1118  O279    1.395   .     S
C1119  C1120   1.406   .     A
C1119  O280    1.395   .     S
C1120  H280    1.083   .     S
O273   Zn14    1.803   .     S
O274   Zn14    1.803   .     S
O275   Cu48    1.814   .     S
O276   Cu48    1.814   .     S
O277   Cu35    1.814   .     S
O278   Cu35    1.814   .     S
O279   Zn27    1.803   .     S
O280   Zn27    1.803   .     S
C1121  C1122   1.406   .     A
C1121  C1126   1.396   .     A
C1121  H281    1.083   .     S
C1122  C1123   1.427   .     A
C1122  O281    1.395   .     S
C1123  C1124   1.407   .     A
C1123  O282    1.395   .     S
C1124  C1125   1.396   .     A
C1124  H282    1.083   .     S
C1125  C1126   1.360   .     A
C1125  C1128   1.377   .     A
C1126  C1127   1.376   .     A
C1127  N281    1.360   .     A
C1127  N288    1.338   .     A
N281   C1128   1.360   .     A
N281   Ni36    1.896   .     S
C1128  N282    1.338   .     A
N282   C1129   1.338   .     A
C1129  N283    1.360   .     A
C1129  C1132   1.377   .     A
N283   C1130   1.360   .     A
N283   Ni36    1.896   .     S
C1130  C1131   1.376   .     A
C1130  N285    1.338   .     A
C1131  C1132   1.360   .     A
C1131  C1140   1.396   .     A
C1132  C1137   1.396   .     A
N284   C1133   1.360   .     A
N284   C1136   1.360   .     A
N284   Ni36    1.896   .     S
C1133  N285    1.338   .     A
C1133  C1134   1.376   .     A
C1134  C1135   1.363   .     A
C1134  C1144   1.399   .     A
C1135  C1136   1.376   .     A
C1135  C1141   1.399   .     A
C1136  N287    1.338   .     A
C1137  C1138   1.407   .     A
C1137  H283    1.083   .     S
C1138  C1139   1.427   .     A
C1138  O283    1.395   .     S
C1139  C1140   1.406   .     A
C1139  O284    1.395   .     S
C1140  H284    1.083   .     S
C1141  C1142   1.406   .     A
C1141  H285    1.082   .     S
C1142  C1143   1.388   .     A
C1142  O285    1.381   .     S
C1143  C1144   1.406   .     A
C1143  O286    1.381   .     S
C1144  H286    1.082   .     S
N286   C1145   1.360   .     A
N286   C1148   1.360   .     A
N286   Ni36    1.896   .     S
C1145  N287    1.338   .     A
C1145  C1146   1.376   .     A
C1146  C1147   1.363   .     A
C1146  C1152   1.399   .     A
C1147  C1148   1.376   .     A
C1147  C1149   1.399   .     A
C1148  N288    1.338   .     A
C1149  C1150   1.406   .     A
C1149  H287    1.082   .     S
C1150  C1151   1.388   .     A
C1150  O287    1.381   .     S
C1151  C1152   1.406   .     A
C1151  O288    1.381   .     S
C1152  H288    1.082   .     S
O281   Zn15    1.803   .     S
O282   Zn15    1.803   .     S
O283   Zn28    1.803   .     S
O284   Zn28    1.803   .     S
O285   Cu36    1.814   .     S
O286   Cu36    1.814   .     S
O287   Cu46    1.814   .     S
O288   Cu46    1.814   .     S
C1153  C1154   1.406   .     A
C1153  C1158   1.399   .     A
C1153  H289    1.082   .     S
C1154  C1155   1.388   .     A
C1154  O289    1.381   .     S
C1155  C1156   1.406   .     A
C1155  O290    1.381   .     S
C1156  C1157   1.399   .     A
C1156  H290    1.082   .     S
C1157  C1158   1.363   .     A
C1157  C1160   1.376   .     A
C1158  C1159   1.376   .     A
C1159  N289    1.360   .     A
C1159  N296    1.338   .     A
N289   C1160   1.360   .     A
N289   Ni37    1.896   .     S
C1160  N290    1.338   .     A
N290   C1161   1.338   .     A
C1161  N291    1.360   .     A
C1161  C1164   1.376   .     A
N291   C1162   1.360   .     A
N291   Ni37    1.896   .     S
C1162  C1163   1.376   .     A
C1162  N293    1.338   .     A
C1163  C1164   1.363   .     A
C1163  C1172   1.399   .     A
C1164  C1169   1.399   .     A
N292   C1165   1.360   .     A
N292   C1168   1.360   .     A
N292   Ni37    1.895   .     S
C1165  N293    1.338   .     A
C1165  C1166   1.376   .     A
C1166  C1167   1.360   .     A
C1166  C1176   1.396   .     A
C1167  C1168   1.377   .     A
C1167  C1173   1.396   .     A
C1168  N295    1.338   .     A
C1169  C1170   1.406   .     A
C1169  H291    1.082   .     S
C1170  C1171   1.388   .     A
C1170  O291    1.381   .     S
C1171  C1172   1.406   .     A
C1171  O292    1.381   .     S
C1172  H292    1.082   .     S
C1173  C1174   1.407   .     A
C1173  H293    1.083   .     S
C1174  C1175   1.427   .     A
C1174  O293    1.395   .     S
C1175  C1176   1.406   .     A
C1175  O294    1.395   .     S
C1176  H294    1.083   .     S
N294   C1177   1.360   .     A
N294   C1180   1.360   .     A
N294   Ni37    1.895   .     S
C1177  N295    1.338   .     A
C1177  C1178   1.377   .     A
C1178  C1179   1.361   .     A
C1178  C1184   1.396   .     A
C1179  C1180   1.376   .     A
C1179  C1181   1.396   .     A
C1180  N296    1.338   .     A
C1181  C1182   1.406   .     A
C1181  H295    1.083   .     S
C1182  C1183   1.427   .     A
C1182  O295    1.395   .     S
C1183  C1184   1.407   .     A
C1183  O296    1.395   .     S
C1184  H296    1.083   .     S
O289   Cu37    1.814   .     S
O290   Cu37    1.814   .     S
O291   Cu43    1.814   .     S
O292   Cu43    1.814   .     S
O293   Zn10    1.803   .     S
O294   Zn10    1.803   .     S
O295   Zn29    1.803   .     S
O296   Zn29    1.803   .     S
C1185  C1186   1.406   .     A
C1185  C1190   1.399   .     A
C1185  H297    1.082   .     S
C1186  C1187   1.388   .     A
C1186  O297    1.381   .     S
C1187  C1188   1.406   .     A
C1187  O298    1.381   .     S
C1188  C1189   1.399   .     A
C1188  H298    1.082   .     S
C1189  C1190   1.363   .     A
C1189  C1192   1.376   .     A
C1190  C1191   1.376   .     A
C1191  N297    1.360   .     A
C1191  N304    1.338   .     A
N297   C1192   1.360   .     A
N297   Ni38    1.896   .     S
C1192  N298    1.338   .     A
N298   C1193   1.338   .     A
C1193  N299    1.360   .     A
C1193  C1196   1.376   .     A
N299   C1194   1.360   .     A
N299   Ni38    1.896   .     S
C1194  C1195   1.377   .     A
C1194  N301    1.338   .     A
C1195  C1196   1.360   .     A
C1195  C1204   1.396   .     A
C1196  C1201   1.396   .     A
N300   C1197   1.360   .     A
N300   C1200   1.360   .     A
N300   Ni38    1.896   .     S
C1197  N301    1.338   .     A
C1197  C1198   1.377   .     A
C1198  C1199   1.360   .     A
C1198  C1208   1.396   .     A
C1199  C1200   1.376   .     A
C1199  C1205   1.396   .     A
C1200  N303    1.338   .     A
C1201  C1202   1.406   .     A
C1201  H299    1.083   .     S
C1202  C1203   1.427   .     A
C1202  O299    1.395   .     S
C1203  C1204   1.407   .     A
C1203  O300    1.395   .     S
C1204  H300    1.083   .     S
C1205  C1206   1.406   .     A
C1205  H301    1.083   .     S
C1206  C1207   1.427   .     A
C1206  O301    1.395   .     S
C1207  C1208   1.407   .     A
C1207  O302    1.395   .     S
C1208  H302    1.083   .     S
N302   C1209   1.360   .     A
N302   C1212   1.360   .     A
N302   Ni38    1.896   .     S
C1209  N303    1.338   .     A
C1209  C1210   1.376   .     A
C1210  C1211   1.363   .     A
C1210  C1216   1.399   .     A
C1211  C1212   1.376   .     A
C1211  C1213   1.399   .     A
C1212  N304    1.338   .     A
C1213  C1214   1.406   .     A
C1213  H303    1.082   .     S
C1214  C1215   1.388   .     A
C1214  O303    1.381   .     S
C1215  C1216   1.406   .     A
C1215  O304    1.381   .     S
C1216  H304    1.082   .     S
O297   Cu38    1.814   .     S
O298   Cu38    1.814   .     S
O299   Zn30    1.803   .     S
O300   Zn30    1.803   .     S
O301   Zn11    1.803   .     S
O302   Zn11    1.803   .     S
O303   Cu44    1.814   .     S
O304   Cu44    1.814   .     S
C1217  C1218   1.406   .     A
C1217  C1222   1.398   .     A
C1217  H305    1.082   .     S
C1218  C1219   1.388   .     A
C1218  O305    1.381   .     S
C1219  C1220   1.406   .     A
C1219  O306    1.381   .     S
C1220  C1221   1.399   .     A
C1220  H306    1.082   .     S
C1221  C1222   1.363   .     A
C1221  C1224   1.376   .     A
C1222  C1223   1.376   .     A
C1223  N305    1.360   .     A
C1223  N312    1.338   .     A
N305   C1224   1.360   .     A
N305   Ni39    1.896   .     S
C1224  N306    1.338   .     A
N306   C1225   1.338   .     A
C1225  N307    1.360   .     A
C1225  C1228   1.376   .     A
N307   C1226   1.360   .     A
N307   Ni39    1.896   .     S
C1226  C1227   1.377   .     A
C1226  N309    1.338   .     A
C1227  C1228   1.361   .     A
C1227  C1236   1.396   .     A
C1228  C1233   1.396   .     A
N308   C1229   1.360   .     A
N308   C1232   1.360   .     A
N308   Ni39    1.896   .     S
C1229  N309    1.338   .     A
C1229  C1230   1.377   .     A
C1230  C1231   1.360   .     A
C1230  C1240   1.396   .     A
C1231  C1232   1.376   .     A
C1231  C1237   1.396   .     A
C1232  N311    1.338   .     A
C1233  C1234   1.406   .     A
C1233  H307    1.083   .     S
C1234  C1235   1.427   .     A
C1234  O307    1.395   .     S
C1235  C1236   1.407   .     A
C1235  O308    1.395   .     S
C1236  H308    1.083   .     S
C1237  C1238   1.406   .     A
C1237  H309    1.083   .     S
C1238  C1239   1.427   .     A
C1238  O309    1.395   .     S
C1239  C1240   1.407   .     A
C1239  O310    1.395   .     S
C1240  H310    1.083   .     S
N310   C1241   1.360   .     A
N310   C1244   1.360   .     A
N310   Ni39    1.896   .     S
C1241  N311    1.338   .     A
C1241  C1242   1.376   .     A
C1242  C1243   1.363   .     A
C1242  C1248   1.399   .     A
C1243  C1244   1.376   .     A
C1243  C1245   1.399   .     A
C1244  N312    1.338   .     A
C1245  C1246   1.406   .     A
C1245  H311    1.082   .     S
C1246  C1247   1.388   .     A
C1246  O311    1.381   .     S
C1247  C1248   1.406   .     A
C1247  O312    1.381   .     S
C1248  H312    1.082   .     S
O305   Cu45    1.814   .     S
O306   Cu45    1.814   .     S
O307   Zn12    1.803   .     S
O308   Zn12    1.803   .     S
O309   Zn31    1.803   .     S
O310   Zn31    1.803   .     S
O311   Cu39    1.814   .     S
O312   Cu39    1.814   .     S
C1249  C1250   1.406   .     A
C1249  C1254   1.399   .     A
C1249  H313    1.082   .     S
C1250  C1251   1.388   .     A
C1250  O313    1.381   .     S
C1251  C1252   1.406   .     A
C1251  O314    1.381   .     S
C1252  C1253   1.399   .     A
C1252  H314    1.082   .     S
C1253  C1254   1.363   .     A
C1253  C1256   1.376   .     A
C1254  C1255   1.376   .     A
C1255  N313    1.360   .     A
C1255  N320    1.338   .     A
N313   C1256   1.360   .     A
N313   Ni40    1.896   .     S
C1256  N314    1.338   .     A
N314   C1257   1.338   .     A
C1257  N315    1.360   .     A
C1257  C1260   1.376   .     A
N315   C1258   1.360   .     A
N315   Ni40    1.896   .     S
C1258  C1259   1.376   .     A
C1258  N317    1.338   .     A
C1259  C1260   1.363   .     A
C1259  C1268   1.399   .     A
C1260  C1265   1.399   .     A
N316   C1261   1.360   .     A
N316   C1264   1.360   .     A
N316   Ni40    1.896   .     S
C1261  N317    1.338   .     A
C1261  C1262   1.376   .     A
C1262  C1263   1.361   .     A
C1262  C1272   1.396   .     A
C1263  C1264   1.377   .     A
C1263  C1269   1.396   .     A
C1264  N319    1.338   .     A
C1265  C1266   1.406   .     A
C1265  H315    1.082   .     S
C1266  C1267   1.388   .     A
C1266  O315    1.381   .     S
C1267  C1268   1.406   .     A
C1267  O316    1.381   .     S
C1268  H316    1.082   .     S
C1269  C1270   1.407   .     A
C1269  H317    1.083   .     S
C1270  C1271   1.427   .     A
C1270  O317    1.395   .     S
C1271  C1272   1.406   .     A
C1271  O318    1.395   .     S
C1272  H318    1.083   .     S
N318   C1273   1.360   .     A
N318   C1276   1.360   .     A
N318   Ni40    1.896   .     S
C1273  N319    1.338   .     A
C1273  C1274   1.377   .     A
C1274  C1275   1.361   .     A
C1274  C1280   1.396   .     A
C1275  C1276   1.376   .     A
C1275  C1277   1.396   .     A
C1276  N320    1.338   .     A
C1277  C1278   1.406   .     A
C1277  H319    1.083   .     S
C1278  C1279   1.427   .     A
C1278  O319    1.395   .     S
C1279  C1280   1.407   .     A
C1279  O320    1.395   .     S
C1280  H320    1.083   .     S
O313   Cu40    1.814   .     S
O314   Cu40    1.814   .     S
O315   Cu42    1.814   .     S
O316   Cu42    1.814   .     S
O317   Zn9     1.803   .     S
O318   Zn9     1.803   .     S
O319   Zn32    1.803   .     S
O320   Zn32    1.803   .     S
C1281  C1282   1.406   .     A
C1281  C1286   1.396   .     A
C1281  H321    1.083   .     S
C1282  C1283   1.427   .     A
C1282  O321    1.395   .     S
C1283  C1284   1.407   .     A
C1283  O322    1.395   .     S
C1284  C1285   1.396   .     A
C1284  H322    1.083   .     S
C1285  C1286   1.360   .     A
C1285  C1288   1.377   .     A
C1286  C1287   1.376   .     A
C1287  N321    1.360   .     A
C1287  N328    1.338   .     A
N321   C1288   1.360   .     A
N321   Ni41    1.896   .     S
C1288  N322    1.338   .     A
N322   C1289   1.338   .     A
C1289  N323    1.360   .     A
C1289  C1292   1.377   .     A
N323   C1290   1.360   .     A
N323   Ni41    1.896   .     S
C1290  C1291   1.376   .     A
C1290  N325    1.338   .     A
C1291  C1292   1.360   .     A
C1291  C1300   1.396   .     A
C1292  C1297   1.396   .     A
N324   C1293   1.360   .     A
N324   C1296   1.360   .     A
N324   Ni41    1.896   .     S
C1293  N325    1.338   .     A
C1293  C1294   1.376   .     A
C1294  C1295   1.363   .     A
C1294  C1304   1.399   .     A
C1295  C1296   1.376   .     A
C1295  C1301   1.399   .     A
C1296  N327    1.338   .     A
C1297  C1298   1.407   .     A
C1297  H323    1.083   .     S
C1298  C1299   1.427   .     A
C1298  O323    1.395   .     S
C1299  C1300   1.406   .     A
C1299  O324    1.395   .     S
C1300  H324    1.083   .     S
C1301  C1302   1.406   .     A
C1301  H325    1.082   .     S
C1302  C1303   1.388   .     A
C1302  O325    1.381   .     S
C1303  C1304   1.406   .     A
C1303  O326    1.381   .     S
C1304  H326    1.082   .     S
N326   C1305   1.360   .     A
N326   C1308   1.360   .     A
N326   Ni41    1.896   .     S
C1305  N327    1.338   .     A
C1305  C1306   1.376   .     A
C1306  C1307   1.363   .     A
C1306  C1312   1.399   .     A
C1307  C1308   1.376   .     A
C1307  C1309   1.399   .     A
C1308  N328    1.338   .     A
C1309  C1310   1.406   .     A
C1309  H327    1.082   .     S
C1310  C1311   1.388   .     A
C1310  O327    1.381   .     S
C1311  C1312   1.406   .     A
C1311  O328    1.381   .     S
C1312  H328    1.082   .     S
O321   Zn33    1.803   .     S
O322   Zn33    1.803   .     S
O323   Zn8     1.803   .     S
O324   Zn8     1.803   .     S
O325   Cu38    1.814   .     S
O326   Cu38    1.814   .     S
O327   Cu41    1.814   .     S
O328   Cu41    1.814   .     S
C1313  C1314   1.406   .     A
C1313  C1318   1.399   .     A
C1313  H329    1.082   .     S
C1314  C1315   1.388   .     A
C1314  O329    1.381   .     S
C1315  C1316   1.406   .     A
C1315  O330    1.381   .     S
C1316  C1317   1.399   .     A
C1316  H330    1.082   .     S
C1317  C1318   1.363   .     A
C1317  C1320   1.376   .     A
C1318  C1319   1.376   .     A
C1319  N329    1.360   .     A
C1319  N336    1.338   .     A
N329   C1320   1.360   .     A
N329   Ni42    1.896   .     S
C1320  N330    1.338   .     A
N330   C1321   1.338   .     A
C1321  N331    1.360   .     A
C1321  C1324   1.376   .     A
N331   C1322   1.360   .     A
N331   Ni42    1.896   .     S
C1322  C1323   1.377   .     A
C1322  N333    1.338   .     A
C1323  C1324   1.360   .     A
C1323  C1332   1.396   .     A
C1324  C1329   1.396   .     A
N332   C1325   1.360   .     A
N332   C1328   1.360   .     A
N332   Ni42    1.896   .     S
C1325  N333    1.338   .     A
C1325  C1326   1.377   .     A
C1326  C1327   1.361   .     A
C1326  C1336   1.396   .     A
C1327  C1328   1.376   .     A
C1327  C1333   1.396   .     A
C1328  N335    1.338   .     A
C1329  C1330   1.406   .     A
C1329  H331    1.083   .     S
C1330  C1331   1.427   .     A
C1330  O331    1.395   .     S
C1331  C1332   1.407   .     A
C1331  O332    1.395   .     S
C1332  H332    1.083   .     S
C1333  C1334   1.406   .     A
C1333  H333    1.083   .     S
C1334  C1335   1.427   .     A
C1334  O333    1.395   .     S
C1335  C1336   1.407   .     A
C1335  O334    1.395   .     S
C1336  H334    1.083   .     S
N334   C1337   1.360   .     A
N334   C1340   1.360   .     A
N334   Ni42    1.896   .     S
C1337  N335    1.338   .     A
C1337  C1338   1.376   .     A
C1338  C1339   1.363   .     A
C1338  C1344   1.399   .     A
C1339  C1340   1.376   .     A
C1339  C1341   1.399   .     A
C1340  N336    1.338   .     A
C1341  C1342   1.406   .     A
C1341  H335    1.082   .     S
C1342  C1343   1.388   .     A
C1342  O335    1.381   .     S
C1343  C1344   1.406   .     A
C1343  O336    1.381   .     S
C1344  H336    1.082   .     S
O329   Cu36    1.814   .     S
O330   Cu36    1.814   .     S
O331   Zn2     1.803   .     S
O332   Zn2     1.803   .     S
O333   Zn37    1.803   .     S
O334   Zn37    1.803   .     S
O335   Cu42    1.814   .     S
O336   Cu42    1.814   .     S
C1345  C1346   1.406   .     A
C1345  C1350   1.399   .     A
C1345  H337    1.082   .     S
C1346  C1347   1.388   .     A
C1346  O337    1.381   .     S
C1347  C1348   1.406   .     A
C1347  O338    1.381   .     S
C1348  C1349   1.399   .     A
C1348  H338    1.082   .     S
C1349  C1350   1.363   .     A
C1349  C1352   1.376   .     A
C1350  C1351   1.376   .     A
C1351  N337    1.360   .     A
C1351  N344    1.338   .     A
N337   C1352   1.360   .     A
N337   Ni43    1.896   .     S
C1352  N338    1.338   .     A
N338   C1353   1.338   .     A
C1353  N339    1.360   .     A
C1353  C1356   1.376   .     A
N339   C1354   1.360   .     A
N339   Ni43    1.896   .     S
C1354  C1355   1.377   .     A
C1354  N341    1.338   .     A
C1355  C1356   1.361   .     A
C1355  C1364   1.396   .     A
C1356  C1361   1.396   .     A
N340   C1357   1.360   .     A
N340   C1360   1.360   .     A
N340   Ni43    1.896   .     S
C1357  N341    1.338   .     A
C1357  C1358   1.377   .     A
C1358  C1359   1.360   .     A
C1358  C1368   1.396   .     A
C1359  C1360   1.376   .     A
C1359  C1365   1.396   .     A
C1360  N343    1.338   .     A
C1361  C1362   1.406   .     A
C1361  H339    1.083   .     S
C1362  C1363   1.427   .     A
C1362  O339    1.395   .     S
C1363  C1364   1.407   .     A
C1363  O340    1.395   .     S
C1364  H340    1.083   .     S
C1365  C1366   1.406   .     A
C1365  H341    1.083   .     S
C1366  C1367   1.427   .     A
C1366  O341    1.395   .     S
C1367  C1368   1.407   .     A
C1367  O342    1.395   .     S
C1368  H342    1.083   .     S
N342   C1369   1.360   .     A
N342   C1372   1.360   .     A
N342   Ni43    1.896   .     S
C1369  N343    1.338   .     A
C1369  C1370   1.376   .     A
C1370  C1371   1.363   .     A
C1370  C1376   1.399   .     A
C1371  C1372   1.376   .     A
C1371  C1373   1.399   .     A
C1372  N344    1.338   .     A
C1373  C1374   1.406   .     A
C1373  H343    1.082   .     S
C1374  C1375   1.388   .     A
C1374  O343    1.381   .     S
C1375  C1376   1.406   .     A
C1375  O344    1.381   .     S
C1376  H344    1.082   .     S
O337   Cu43    1.814   .     S
O338   Cu43    1.814   .     S
O339   Zn38    1.803   .     S
O340   Zn38    1.803   .     S
O341   Zn3     1.803   .     S
O342   Zn3     1.803   .     S
O343   Cu33    1.814   .     S
O344   Cu33    1.814   .     S
C1377  C1378   1.406   .     A
C1377  C1382   1.399   .     A
C1377  H345    1.082   .     S
C1378  C1379   1.388   .     A
C1378  O345    1.381   .     S
C1379  C1380   1.406   .     A
C1379  O346    1.381   .     S
C1380  C1381   1.399   .     A
C1380  H346    1.082   .     S
C1381  C1382   1.363   .     A
C1381  C1384   1.376   .     A
C1382  C1383   1.376   .     A
C1383  N345    1.360   .     A
C1383  N352    1.338   .     A
N345   C1384   1.360   .     A
N345   Ni44    1.896   .     S
C1384  N346    1.338   .     A
N346   C1385   1.338   .     A
C1385  N347    1.360   .     A
C1385  C1388   1.376   .     A
N347   C1386   1.360   .     A
N347   Ni44    1.896   .     S
C1386  C1387   1.376   .     A
C1386  N349    1.338   .     A
C1387  C1388   1.363   .     A
C1387  C1396   1.399   .     A
C1388  C1393   1.399   .     A
N348   C1389   1.360   .     A
N348   C1392   1.360   .     A
N348   Ni44    1.896   .     S
C1389  N349    1.338   .     A
C1389  C1390   1.376   .     A
C1390  C1391   1.360   .     A
C1390  C1400   1.396   .     A
C1391  C1392   1.377   .     A
C1391  C1397   1.396   .     A
C1392  N351    1.338   .     A
C1393  C1394   1.406   .     A
C1393  H347    1.082   .     S
C1394  C1395   1.388   .     A
C1394  O347    1.381   .     S
C1395  C1396   1.406   .     A
C1395  O348    1.381   .     S
C1396  H348    1.082   .     S
C1397  C1398   1.407   .     A
C1397  H349    1.083   .     S
C1398  C1399   1.427   .     A
C1398  O349    1.395   .     S
C1399  C1400   1.406   .     A
C1399  O350    1.395   .     S
C1400  H350    1.083   .     S
N350   C1401   1.360   .     A
N350   C1404   1.360   .     A
N350   Ni44    1.895   .     S
C1401  N351    1.338   .     A
C1401  C1402   1.377   .     A
C1402  C1403   1.360   .     A
C1402  C1408   1.396   .     A
C1403  C1404   1.376   .     A
C1403  C1405   1.396   .     A
C1404  N352    1.338   .     A
C1405  C1406   1.406   .     A
C1405  H351    1.083   .     S
C1406  C1407   1.427   .     A
C1406  O351    1.395   .     S
C1407  C1408   1.407   .     A
C1407  O352    1.395   .     S
C1408  H352    1.083   .     S
O345   Cu34    1.814   .     S
O346   Cu34    1.814   .     S
O347   Cu44    1.814   .     S
O348   Cu44    1.814   .     S
O349   Zn39    1.803   .     S
O350   Zn39    1.803   .     S
O351   Zn4     1.803   .     S
O352   Zn4     1.803   .     S
C1409  C1410   1.406   .     A
C1409  C1414   1.399   .     A
C1409  H353    1.082   .     S
C1410  C1411   1.388   .     A
C1410  O353    1.381   .     S
C1411  C1412   1.406   .     A
C1411  O354    1.381   .     S
C1412  C1413   1.399   .     A
C1412  H354    1.082   .     S
C1413  C1414   1.363   .     A
C1413  C1416   1.376   .     A
C1414  C1415   1.376   .     A
C1415  N353    1.360   .     A
C1415  N360    1.338   .     A
N353   C1416   1.360   .     A
N353   Ni45    1.896   .     S
C1416  N354    1.338   .     A
N354   C1417   1.338   .     A
C1417  N355    1.360   .     A
C1417  C1420   1.376   .     A
N355   C1418   1.360   .     A
N355   Ni45    1.896   .     S
C1418  C1419   1.376   .     A
C1418  N357    1.338   .     A
C1419  C1420   1.363   .     A
C1419  C1428   1.399   .     A
C1420  C1425   1.399   .     A
N356   C1421   1.360   .     A
N356   C1424   1.360   .     A
N356   Ni45    1.895   .     S
C1421  N357    1.338   .     A
C1421  C1422   1.376   .     A
C1422  C1423   1.360   .     A
C1422  C1432   1.396   .     A
C1423  C1424   1.377   .     A
C1423  C1429   1.396   .     A
C1424  N359    1.338   .     A
C1425  C1426   1.406   .     A
C1425  H355    1.082   .     S
C1426  C1427   1.388   .     A
C1426  O355    1.381   .     S
C1427  C1428   1.406   .     A
C1427  O356    1.381   .     S
C1428  H356    1.082   .     S
C1429  C1430   1.407   .     A
C1429  H357    1.083   .     S
C1430  C1431   1.427   .     A
C1430  O357    1.395   .     S
C1431  C1432   1.406   .     A
C1431  O358    1.395   .     S
C1432  H358    1.083   .     S
N358   C1433   1.360   .     A
N358   C1436   1.360   .     A
N358   Ni45    1.896   .     S
C1433  N359    1.338   .     A
C1433  C1434   1.377   .     A
C1434  C1435   1.361   .     A
C1434  C1440   1.396   .     A
C1435  C1436   1.376   .     A
C1435  C1437   1.396   .     A
C1436  N360    1.338   .     A
C1437  C1438   1.406   .     A
C1437  H359    1.083   .     S
C1438  C1439   1.427   .     A
C1438  O359    1.395   .     S
C1439  C1440   1.407   .     A
C1439  O360    1.395   .     S
C1440  H360    1.083   .     S
O353   Cu35    1.814   .     S
O354   Cu35    1.814   .     S
O355   Cu45    1.814   .     S
O356   Cu45    1.814   .     S
O357   Zn40    1.803   .     S
O358   Zn40    1.803   .     S
O359   Zn1     1.803   .     S
O360   Zn1     1.803   .     S
C1441  C1442   1.407   .     A
C1441  C1446   1.396   .     A
C1441  H361    1.083   .     S
C1442  C1443   1.427   .     A
C1442  O361    1.395   .     S
C1443  C1444   1.406   .     A
C1443  O362    1.395   .     S
C1444  C1445   1.396   .     A
C1444  H362    1.083   .     S
C1445  C1446   1.360   .     A
C1445  C1448   1.376   .     A
C1446  C1447   1.377   .     A
C1447  N361    1.360   .     A
C1447  N368    1.338   .     A
N361   C1448   1.360   .     A
N361   Ni46    1.896   .     S
C1448  N362    1.338   .     A
N362   C1449   1.338   .     A
C1449  N363    1.360   .     A
C1449  C1452   1.376   .     A
N363   C1450   1.360   .     A
N363   Ni46    1.896   .     S
C1450  C1451   1.376   .     A
C1450  N365    1.338   .     A
C1451  C1452   1.363   .     A
C1451  C1460   1.399   .     A
C1452  C1457   1.399   .     A
N364   C1453   1.360   .     A
N364   C1456   1.360   .     A
N364   Ni46    1.896   .     S
C1453  N365    1.338   .     A
C1453  C1454   1.376   .     A
C1454  C1455   1.363   .     A
C1454  C1464   1.399   .     A
C1455  C1456   1.376   .     A
C1455  C1461   1.399   .     A
C1456  N367    1.338   .     A
C1457  C1458   1.406   .     A
C1457  H363    1.082   .     S
C1458  C1459   1.388   .     A
C1458  O363    1.381   .     S
C1459  C1460   1.406   .     A
C1459  O364    1.381   .     S
C1460  H364    1.082   .     S
C1461  C1462   1.406   .     A
C1461  H365    1.082   .     S
C1462  C1463   1.388   .     A
C1462  O365    1.381   .     S
C1463  C1464   1.406   .     A
C1463  O366    1.381   .     S
C1464  H366    1.082   .     S
N366   C1465   1.360   .     A
N366   C1468   1.360   .     A
N366   Ni46    1.895   .     S
C1465  N367    1.338   .     A
C1465  C1466   1.376   .     A
C1466  C1467   1.361   .     A
C1466  C1472   1.396   .     A
C1467  C1468   1.377   .     A
C1467  C1469   1.396   .     A
C1468  N368    1.338   .     A
C1469  C1470   1.407   .     A
C1469  H367    1.083   .     S
C1470  C1471   1.427   .     A
C1470  O367    1.395   .     S
C1471  C1472   1.406   .     A
C1471  O368    1.395   .     S
C1472  H368    1.083   .     S
O361   Zn35    1.803   .     S
O362   Zn35    1.803   .     S
O363   Cu46    1.814   .     S
O364   Cu46    1.814   .     S
O365   Cu40    1.814   .     S
O366   Cu40    1.814   .     S
O367   Zn6     1.803   .     S
O368   Zn6     1.803   .     S
C1473  C1474   1.407   .     A
C1473  C1478   1.396   .     A
C1473  H369    1.083   .     S
C1474  C1475   1.427   .     A
C1474  O369    1.395   .     S
C1475  C1476   1.406   .     A
C1475  O370    1.395   .     S
C1476  C1477   1.396   .     A
C1476  H370    1.083   .     S
C1477  C1478   1.360   .     A
C1477  C1480   1.376   .     A
C1478  C1479   1.377   .     A
C1479  N369    1.360   .     A
C1479  N376    1.338   .     A
N369   C1480   1.360   .     A
N369   Ni47    1.896   .     S
C1480  N370    1.338   .     A
N370   C1481   1.338   .     A
C1481  N371    1.360   .     A
C1481  C1484   1.376   .     A
N371   C1482   1.360   .     A
N371   Ni47    1.896   .     S
C1482  C1483   1.376   .     A
C1482  N373    1.338   .     A
C1483  C1484   1.363   .     A
C1483  C1492   1.399   .     A
C1484  C1489   1.399   .     A
N372   C1485   1.360   .     A
N372   C1488   1.360   .     A
N372   Ni47    1.896   .     S
C1485  N373    1.338   .     A
C1485  C1486   1.376   .     A
C1486  C1487   1.363   .     A
C1486  C1496   1.399   .     A
C1487  C1488   1.376   .     A
C1487  C1493   1.399   .     A
C1488  N375    1.338   .     A
C1489  C1490   1.406   .     A
C1489  H371    1.082   .     S
C1490  C1491   1.388   .     A
C1490  O371    1.381   .     S
C1491  C1492   1.406   .     A
C1491  O372    1.381   .     S
C1492  H372    1.082   .     S
C1493  C1494   1.406   .     A
C1493  H373    1.082   .     S
C1494  C1495   1.388   .     A
C1494  O373    1.381   .     S
C1495  C1496   1.406   .     A
C1495  O374    1.381   .     S
C1496  H374    1.082   .     S
N374   C1497   1.360   .     A
N374   C1500   1.360   .     A
N374   Ni47    1.896   .     S
C1497  N375    1.338   .     A
C1497  C1498   1.376   .     A
C1498  C1499   1.360   .     A
C1498  C1504   1.396   .     A
C1499  C1500   1.377   .     A
C1499  C1501   1.396   .     A
C1500  N376    1.338   .     A
C1501  C1502   1.407   .     A
C1501  H375    1.083   .     S
C1502  C1503   1.427   .     A
C1502  O375    1.395   .     S
C1503  C1504   1.406   .     A
C1503  O376    1.395   .     S
C1504  H376    1.083   .     S
O369   Zn36    1.803   .     S
O370   Zn36    1.803   .     S
O371   Cu47    1.814   .     S
O372   Cu47    1.814   .     S
O373   Cu37    1.814   .     S
O374   Cu37    1.814   .     S
O375   Zn7     1.803   .     S
O376   Zn7     1.803   .     S
C1505  C1506   1.406   .     A
C1505  C1510   1.396   .     A
C1505  H377    1.083   .     S
C1506  C1507   1.427   .     A
C1506  O377    1.395   .     S
C1507  C1508   1.407   .     A
C1507  O378    1.395   .     S
C1508  C1509   1.396   .     A
C1508  H378    1.083   .     S
C1509  C1510   1.360   .     A
C1509  C1512   1.377   .     A
C1510  C1511   1.376   .     A
C1511  N377    1.360   .     A
C1511  N384    1.338   .     A
N377   C1512   1.360   .     A
N377   Ni48    1.896   .     S
C1512  N378    1.338   .     A
N378   C1513   1.338   .     A
C1513  N379    1.360   .     A
C1513  C1516   1.377   .     A
N379   C1514   1.360   .     A
N379   Ni48    1.896   .     S
C1514  C1515   1.376   .     A
C1514  N381    1.338   .     A
C1515  C1516   1.360   .     A
C1515  C1524   1.396   .     A
C1516  C1521   1.396   .     A
N380   C1517   1.360   .     A
N380   C1520   1.360   .     A
N380   Ni48    1.896   .     S
C1517  N381    1.338   .     A
C1517  C1518   1.376   .     A
C1518  C1519   1.363   .     A
C1518  C1528   1.399   .     A
C1519  C1520   1.376   .     A
C1519  C1525   1.399   .     A
C1520  N383    1.338   .     A
C1521  C1522   1.407   .     A
C1521  H379    1.083   .     S
C1522  C1523   1.427   .     A
C1522  O379    1.395   .     S
C1523  C1524   1.406   .     A
C1523  O380    1.395   .     S
C1524  H380    1.083   .     S
C1525  C1526   1.406   .     A
C1525  H381    1.082   .     S
C1526  C1527   1.388   .     A
C1526  O381    1.381   .     S
C1527  C1528   1.406   .     A
C1527  O382    1.381   .     S
C1528  H382    1.082   .     S
N382   C1529   1.360   .     A
N382   C1532   1.360   .     A
N382   Ni48    1.896   .     S
C1529  N383    1.338   .     A
C1529  C1530   1.376   .     A
C1530  C1531   1.363   .     A
C1530  C1536   1.399   .     A
C1531  C1532   1.376   .     A
C1531  C1533   1.399   .     A
C1532  N384    1.338   .     A
C1533  C1534   1.406   .     A
C1533  H383    1.082   .     S
C1534  C1535   1.388   .     A
C1534  O383    1.381   .     S
C1535  C1536   1.406   .     A
C1535  O384    1.381   .     S
C1536  H384    1.082   .     S
O377   Zn34    1.803   .     S
O378   Zn34    1.803   .     S
O379   Zn5     1.803   .     S
O380   Zn5     1.803   .     S
O381   Cu39    1.814   .     S
O382   Cu39    1.814   .     S
O383   Cu48    1.814   .     S
O384   Cu48    1.814   .     S
Cu1    O6      1.814   1_565 S
Cu1    O5      1.814   1_565 S
Cu2    O11     1.814   1_455 S
Cu2    O12     1.814   1_455 S
Cu3    O18     1.814   1_545 S
Cu3    O17     1.814   1_545 S
Cu4    O19     1.814   1_455 S
Cu4    O20     1.814   1_455 S
Cu5    O34     1.814   1_545 S
Cu5    O33     1.814   1_545 S
Cu6    O51     1.814   1_455 S
Cu6    O52     1.814   1_455 S
Cu7    O58     1.814   1_545 S
Cu7    O57     1.814   1_545 S
Cu8    O59     1.814   1_455 S
Cu8    O60     1.814   1_455 S
Cu9    O68     1.814   1_556 S
Cu9    O67     1.814   1_556 S
Cu10   O78     1.814   1_556 S
Cu10   O77     1.814   1_556 S
Cu11   O86     1.814   1_556 S
Cu11   O85     1.814   1_556 S
Cu12   O94     1.814   1_556 S
Cu12   O93     1.814   1_556 S
Cu13   O182    1.814   1_556 S
Cu13   O181    1.814   1_556 S
Cu14   O134    1.814   1_556 S
Cu14   O133    1.814   1_556 S
Cu15   O190    1.814   1_556 S
Cu15   O189    1.814   1_556 S
Cu16   O174    1.814   1_556 S
Cu16   O173    1.814   1_556 S
Cu17   O75     1.814   1_455 S
Cu17   O76     1.814   1_455 S
Cu18   O123    1.814   1_455 S
Cu18   O124    1.814   1_455 S
Cu19   O101    1.814   1_545 S
Cu19   O102    1.814   1_545 S
Cu20   O155    1.814   1_455 S
Cu20   O156    1.814   1_455 S
Cu21   O165    1.814   1_545 S
Cu21   O166    1.814   1_545 S
Cu22   O95     1.814   1_655 S
Cu22   O96     1.814   1_655 S
Cu23   O179    1.814   1_545 S
Cu23   O180    1.814   1_545 S
Cu24   O83     1.814   1_545 S
Cu24   O84     1.814   1_545 S
