data_sst-PcMN_O-Zntet
_audit_creation_date              2021-11-06
_audit_creation_method            'Materials Studio'
_symmetry_space_group_name_H-M    'P1'
_symmetry_Int_Tables_number       1
_symmetry_cell_setting            triclinic
loop_
_symmetry_equiv_pos_as_xyz
  x,y,z
_cell_length_a                    90.5098
_cell_length_b                    90.5098
_cell_length_c                    90.5098
_cell_angle_alpha                 90.0053
_cell_angle_beta                  90.0067
_cell_angle_gamma                 90.0070
loop_
_atom_site_label
_atom_site_type_symbol
_atom_site_fract_x
_atom_site_fract_y
_atom_site_fract_z
_atom_site_U_iso_or_equiv
_atom_site_adp_type
_atom_site_occupancy
C1     C     0.11006   0.06792   0.37512   0.00000  Uiso   1.00
C2     C     0.11785   0.05442   0.37511   0.00000  Uiso   1.00
C3     C     0.13370   0.05442   0.37502   0.00000  Uiso   1.00
C4     C     0.14149   0.06793   0.37494   0.00000  Uiso   1.00
C5     C     0.13328   0.08096   0.37496   0.00000  Uiso   1.00
C6     C     0.11827   0.08096   0.37504   0.00000  Uiso   1.00
C7     C     0.11398   0.09555   0.37502   0.00000  Uiso   1.00
N1     N     0.12578   0.10485   0.37492   0.00000  Uiso   1.00
C8     C     0.13757   0.09555   0.37489   0.00000  Uiso   1.00
N2     N     0.15173   0.09983   0.37480   0.00000  Uiso   1.00
C9     C     0.15600   0.11399   0.37475   0.00000  Uiso   1.00
N3     N     0.14671   0.12579   0.37477   0.00000  Uiso   1.00
C10    C     0.15601   0.13758   0.37471   0.00000  Uiso   1.00
C11    C     0.17060   0.13329   0.37466   0.00000  Uiso   1.00
C12    C     0.17060   0.11828   0.37467   0.00000  Uiso   1.00
N4     N     0.12578   0.14672   0.37477   0.00000  Uiso   1.00
C13    C     0.13758   0.15602   0.37471   0.00000  Uiso   1.00
N5     N     0.15173   0.15174   0.37469   0.00000  Uiso   1.00
C14    C     0.13328   0.17061   0.37466   0.00000  Uiso   1.00
C15    C     0.11827   0.17060   0.37467   0.00000  Uiso   1.00
C16    C     0.11398   0.15601   0.37474   0.00000  Uiso   1.00
C17    C     0.18363   0.11007   0.37462   0.00000  Uiso   1.00
C18    C     0.19714   0.11786   0.37454   0.00000  Uiso   1.00
C19    C     0.19715   0.13368   0.37453   0.00000  Uiso   1.00
C20    C     0.18365   0.14148   0.37458   0.00000  Uiso   1.00
C21    C     0.11007   0.18363   0.37462   0.00000  Uiso   1.00
C22    C     0.11785   0.19715   0.37454   0.00000  Uiso   1.00
C23    C     0.13367   0.19716   0.37453   0.00000  Uiso   1.00
C24    C     0.14147   0.18366   0.37458   0.00000  Uiso   1.00
N6     N     0.10484   0.12578   0.37492   0.00000  Uiso   1.00
C25    C     0.09555   0.13758   0.37488   0.00000  Uiso   1.00
N7     N     0.09983   0.15173   0.37480   0.00000  Uiso   1.00
C26    C     0.08096   0.13329   0.37495   0.00000  Uiso   1.00
C27    C     0.08096   0.11827   0.37504   0.00000  Uiso   1.00
C28    C     0.09555   0.11398   0.37502   0.00000  Uiso   1.00
C29    C     0.06792   0.11006   0.37512   0.00000  Uiso   1.00
C30    C     0.05442   0.11785   0.37511   0.00000  Uiso   1.00
C31    C     0.05442   0.13370   0.37502   0.00000  Uiso   1.00
C32    C     0.06792   0.14150   0.37494   0.00000  Uiso   1.00
N8     N     0.09983   0.09983   0.37507   0.00000  Uiso   1.00
H1     H     0.09809   0.06824   0.37519   0.00000  Uiso   1.00
H2     H     0.15346   0.06825   0.37487   0.00000  Uiso   1.00
H3     H     0.18329   0.09810   0.37463   0.00000  Uiso   1.00
H4     H     0.18334   0.15345   0.37457   0.00000  Uiso   1.00
H5     H     0.09810   0.18330   0.37463   0.00000  Uiso   1.00
H6     H     0.15344   0.18334   0.37457   0.00000  Uiso   1.00
H7     H     0.06824   0.09810   0.37519   0.00000  Uiso   1.00
H8     H     0.06824   0.15346   0.37487   0.00000  Uiso   1.00
C33    C     0.04090   0.11021   0.37518   0.00000  Uiso   1.00
C34    C     0.02770   0.11819   0.37516   0.00000  Uiso   1.00
C35    C     0.02770   0.13337   0.37507   0.00000  Uiso   1.00
C36    C     0.04091   0.14135   0.37500   0.00000  Uiso   1.00
C37    C     0.11021   0.04091   0.37518   0.00000  Uiso   1.00
C38    C     0.11818   0.02770   0.37516   0.00000  Uiso   1.00
C39    C     0.13337   0.02770   0.37507   0.00000  Uiso   1.00
C40    C     0.14134   0.04091   0.37500   0.00000  Uiso   1.00
C41    C     0.21060   0.11018   0.37448   0.00000  Uiso   1.00
C42    C     0.22394   0.11794   0.37441   0.00000  Uiso   1.00
C43    C     0.22396   0.13354   0.37440   0.00000  Uiso   1.00
C44    C     0.21063   0.14133   0.37446   0.00000  Uiso   1.00
C45    C     0.11017   0.21061   0.37448   0.00000  Uiso   1.00
C46    C     0.11793   0.22395   0.37441   0.00000  Uiso   1.00
C47    C     0.13353   0.22397   0.37440   0.00000  Uiso   1.00
C48    C     0.14132   0.21064   0.37446   0.00000  Uiso   1.00
H9     H     0.04061   0.09824   0.37525   0.00000  Uiso   1.00
O1     O     0.01400   0.11147   0.37522   0.00000  Uiso   1.00
O2     O     0.01400   0.14009   0.37505   0.00000  Uiso   1.00
H10    H     0.04061   0.15332   0.37493   0.00000  Uiso   1.00
H11    H     0.09824   0.04061   0.37525   0.00000  Uiso   1.00
O3     O     0.11146   0.01400   0.37522   0.00000  Uiso   1.00
O4     O     0.14009   0.01400   0.37506   0.00000  Uiso   1.00
H12    H     0.15331   0.04062   0.37493   0.00000  Uiso   1.00
H13    H     0.21077   0.09821   0.37448   0.00000  Uiso   1.00
O5     O     0.23736   0.11035   0.37435   0.00000  Uiso   1.00
O6     O     0.23740   0.14110   0.37435   0.00000  Uiso   1.00
H14    H     0.21083   0.15330   0.37445   0.00000  Uiso   1.00
H15    H     0.09820   0.21078   0.37448   0.00000  Uiso   1.00
O7     O     0.11034   0.23736   0.37435   0.00000  Uiso   1.00
O8     O     0.14109   0.23741   0.37435   0.00000  Uiso   1.00
H16    H     0.15329   0.21084   0.37445   0.00000  Uiso   1.00
Ni1    Ni    0.12578   0.12578   0.37485   0.00000  Uiso   1.00
C49    C     0.85850   0.06790   0.37493   0.00000  Uiso   1.00
C50    C     0.86629   0.05439   0.37500   0.00000  Uiso   1.00
C51    C     0.88214   0.05439   0.37509   0.00000  Uiso   1.00
C52    C     0.88993   0.06789   0.37510   0.00000  Uiso   1.00
C53    C     0.88173   0.08093   0.37502   0.00000  Uiso   1.00
C54    C     0.86671   0.08093   0.37494   0.00000  Uiso   1.00
C55    C     0.86242   0.09552   0.37487   0.00000  Uiso   1.00
N9     N     0.87422   0.10482   0.37491   0.00000  Uiso   1.00
C56    C     0.88602   0.09553   0.37500   0.00000  Uiso   1.00
N10    N     0.90017   0.09980   0.37505   0.00000  Uiso   1.00
C57    C     0.90445   0.11396   0.37500   0.00000  Uiso   1.00
N11    N     0.89516   0.12576   0.37491   0.00000  Uiso   1.00
C58    C     0.90445   0.13755   0.37487   0.00000  Uiso   1.00
C59    C     0.91904   0.13326   0.37494   0.00000  Uiso   1.00
C60    C     0.91904   0.11825   0.37502   0.00000  Uiso   1.00
N12    N     0.87422   0.14669   0.37475   0.00000  Uiso   1.00
C61    C     0.88602   0.15598   0.37473   0.00000  Uiso   1.00
N13    N     0.90017   0.15171   0.37478   0.00000  Uiso   1.00
C62    C     0.88173   0.17057   0.37465   0.00000  Uiso   1.00
C63    C     0.86672   0.17058   0.37464   0.00000  Uiso   1.00
C64    C     0.86242   0.15598   0.37469   0.00000  Uiso   1.00
C65    C     0.93208   0.11005   0.37511   0.00000  Uiso   1.00
C66    C     0.94558   0.11784   0.37510   0.00000  Uiso   1.00
C67    C     0.94558   0.13369   0.37501   0.00000  Uiso   1.00
C68    C     0.93208   0.14148   0.37493   0.00000  Uiso   1.00
C69    C     0.85853   0.18363   0.37456   0.00000  Uiso   1.00
C70    C     0.86634   0.19713   0.37450   0.00000  Uiso   1.00
C71    C     0.88215   0.19712   0.37452   0.00000  Uiso   1.00
C72    C     0.88994   0.18361   0.37460   0.00000  Uiso   1.00
N14    N     0.85328   0.12575   0.37475   0.00000  Uiso   1.00
C73    C     0.84399   0.13755   0.37470   0.00000  Uiso   1.00
N15    N     0.84827   0.15171   0.37467   0.00000  Uiso   1.00
C74    C     0.82940   0.13325   0.37464   0.00000  Uiso   1.00
C75    C     0.82940   0.11824   0.37466   0.00000  Uiso   1.00
C76    C     0.84399   0.11395   0.37473   0.00000  Uiso   1.00
C77    C     0.81637   0.11003   0.37461   0.00000  Uiso   1.00
C78    C     0.80286   0.11782   0.37453   0.00000  Uiso   1.00
C79    C     0.80284   0.13364   0.37452   0.00000  Uiso   1.00
C80    C     0.81635   0.14144   0.37457   0.00000  Uiso   1.00
N16    N     0.84827   0.09980   0.37478   0.00000  Uiso   1.00
H17    H     0.84653   0.06822   0.37486   0.00000  Uiso   1.00
H18    H     0.90190   0.06822   0.37517   0.00000  Uiso   1.00
H19    H     0.93176   0.09808   0.37517   0.00000  Uiso   1.00
H20    H     0.93175   0.15344   0.37486   0.00000  Uiso   1.00
H21    H     0.84656   0.18331   0.37455   0.00000  Uiso   1.00
H22    H     0.90190   0.18328   0.37461   0.00000  Uiso   1.00
H23    H     0.81670   0.09807   0.37462   0.00000  Uiso   1.00
H24    H     0.81667   0.15341   0.37456   0.00000  Uiso   1.00
C81    C     0.78939   0.11014   0.37447   0.00000  Uiso   1.00
C82    C     0.77605   0.11790   0.37441   0.00000  Uiso   1.00
C83    C     0.77604   0.13350   0.37440   0.00000  Uiso   1.00
C84    C     0.78937   0.14129   0.37445   0.00000  Uiso   1.00
C85    C     0.85864   0.04088   0.37499   0.00000  Uiso   1.00
C86    C     0.86662   0.02768   0.37506   0.00000  Uiso   1.00
C87    C     0.88180   0.02768   0.37515   0.00000  Uiso   1.00
C88    C     0.88978   0.04088   0.37517   0.00000  Uiso   1.00
C89    C     0.95909   0.11020   0.37517   0.00000  Uiso   1.00
C90    C     0.97230   0.11818   0.37515   0.00000  Uiso   1.00
C91    C     0.97230   0.13336   0.37506   0.00000  Uiso   1.00
C92    C     0.95909   0.14134   0.37499   0.00000  Uiso   1.00
C93    C     0.85868   0.21061   0.37443   0.00000  Uiso   1.00
C94    C     0.86647   0.22394   0.37437   0.00000  Uiso   1.00
C95    C     0.88207   0.22392   0.37438   0.00000  Uiso   1.00
C96    C     0.88983   0.21058   0.37445   0.00000  Uiso   1.00
H25    H     0.78922   0.09816   0.37448   0.00000  Uiso   1.00
O9     O     0.76264   0.11030   0.37435   0.00000  Uiso   1.00
O10    O     0.76260   0.14106   0.37435   0.00000  Uiso   1.00
H26    H     0.78917   0.15326   0.37445   0.00000  Uiso   1.00
H27    H     0.84668   0.04059   0.37492   0.00000  Uiso   1.00
O11    O     0.85990   0.01397   0.37505   0.00000  Uiso   1.00
O12    O     0.88852   0.01397   0.37521   0.00000  Uiso   1.00
H28    H     0.90175   0.04059   0.37523   0.00000  Uiso   1.00
H29    H     0.95939   0.09823   0.37524   0.00000  Uiso   1.00
O13    O     0.98600   0.11146   0.37521   0.00000  Uiso   1.00
O14    O     0.98600   0.14009   0.37505   0.00000  Uiso   1.00
H30    H     0.95939   0.15330   0.37493   0.00000  Uiso   1.00
H31    H     0.84671   0.21080   0.37443   0.00000  Uiso   1.00
O15    O     0.85891   0.23737   0.37432   0.00000  Uiso   1.00
O16    O     0.88967   0.23734   0.37432   0.00000  Uiso   1.00
H32    H     0.90181   0.21075   0.37446   0.00000  Uiso   1.00
Ni2    Ni    0.87422   0.12575   0.37483   0.00000  Uiso   1.00
C97    C     0.85851   0.81632   0.37457   0.00000  Uiso   1.00
C98    C     0.86631   0.80282   0.37451   0.00000  Uiso   1.00
C99    C     0.88213   0.80283   0.37452   0.00000  Uiso   1.00
C100   C     0.88991   0.81635   0.37461   0.00000  Uiso   1.00
C101   C     0.88171   0.82938   0.37466   0.00000  Uiso   1.00
C102   C     0.86670   0.82937   0.37464   0.00000  Uiso   1.00
C103   C     0.86240   0.84396   0.37470   0.00000  Uiso   1.00
N17    N     0.87420   0.85326   0.37476   0.00000  Uiso   1.00
C104   C     0.88600   0.84397   0.37474   0.00000  Uiso   1.00
N18    N     0.90015   0.84825   0.37479   0.00000  Uiso   1.00
C105   C     0.90443   0.86240   0.37488   0.00000  Uiso   1.00
N19    N     0.89514   0.87420   0.37492   0.00000  Uiso   1.00
C106   C     0.90443   0.88600   0.37501   0.00000  Uiso   1.00
C107   C     0.91903   0.88171   0.37504   0.00000  Uiso   1.00
C108   C     0.91902   0.86669   0.37495   0.00000  Uiso   1.00
N20    N     0.87421   0.89513   0.37492   0.00000  Uiso   1.00
C109   C     0.88600   0.90443   0.37501   0.00000  Uiso   1.00
N21    N     0.90016   0.90015   0.37506   0.00000  Uiso   1.00
C110   C     0.88171   0.91902   0.37504   0.00000  Uiso   1.00
C111   C     0.86670   0.91902   0.37495   0.00000  Uiso   1.00
C112   C     0.86241   0.90442   0.37488   0.00000  Uiso   1.00
C113   C     0.93206   0.85848   0.37494   0.00000  Uiso   1.00
C114   C     0.94556   0.86627   0.37502   0.00000  Uiso   1.00
C115   C     0.94556   0.88212   0.37511   0.00000  Uiso   1.00
C116   C     0.93206   0.88991   0.37512   0.00000  Uiso   1.00
C117   C     0.85849   0.93205   0.37494   0.00000  Uiso   1.00
C118   C     0.86628   0.94556   0.37502   0.00000  Uiso   1.00
C119   C     0.88213   0.94556   0.37510   0.00000  Uiso   1.00
C120   C     0.88992   0.93206   0.37512   0.00000  Uiso   1.00
N22    N     0.85327   0.87419   0.37476   0.00000  Uiso   1.00
C121   C     0.84398   0.88599   0.37474   0.00000  Uiso   1.00
N23    N     0.84826   0.90015   0.37480   0.00000  Uiso   1.00
C122   C     0.82939   0.88170   0.37467   0.00000  Uiso   1.00
C123   C     0.82938   0.86669   0.37465   0.00000  Uiso   1.00
C124   C     0.84397   0.86240   0.37470   0.00000  Uiso   1.00
C125   C     0.81633   0.85850   0.37457   0.00000  Uiso   1.00
C126   C     0.80282   0.86631   0.37452   0.00000  Uiso   1.00
C127   C     0.80284   0.88213   0.37454   0.00000  Uiso   1.00
C128   C     0.81635   0.88991   0.37462   0.00000  Uiso   1.00
N24    N     0.84825   0.84824   0.37468   0.00000  Uiso   1.00
H33    H     0.84654   0.81664   0.37455   0.00000  Uiso   1.00
H34    H     0.90188   0.81668   0.37462   0.00000  Uiso   1.00
H35    H     0.93174   0.84652   0.37487   0.00000  Uiso   1.00
H36    H     0.93174   0.90188   0.37518   0.00000  Uiso   1.00
H37    H     0.84652   0.93173   0.37487   0.00000  Uiso   1.00
H38    H     0.90189   0.93174   0.37518   0.00000  Uiso   1.00
H39    H     0.81664   0.84653   0.37456   0.00000  Uiso   1.00
H40    H     0.81669   0.90188   0.37463   0.00000  Uiso   1.00
C129   C     0.78934   0.85865   0.37445   0.00000  Uiso   1.00
C130   C     0.77602   0.86644   0.37440   0.00000  Uiso   1.00
C131   C     0.77604   0.88205   0.37440   0.00000  Uiso   1.00
C132   C     0.78938   0.88981   0.37448   0.00000  Uiso   1.00
C133   C     0.85866   0.78934   0.37443   0.00000  Uiso   1.00
C134   C     0.86645   0.77601   0.37438   0.00000  Uiso   1.00
C135   C     0.88205   0.77603   0.37439   0.00000  Uiso   1.00
C136   C     0.88981   0.78937   0.37446   0.00000  Uiso   1.00
C137   C     0.95907   0.85863   0.37500   0.00000  Uiso   1.00
C138   C     0.97228   0.86661   0.37507   0.00000  Uiso   1.00
C139   C     0.97228   0.88179   0.37516   0.00000  Uiso   1.00
C140   C     0.95908   0.88977   0.37518   0.00000  Uiso   1.00
C141   C     0.85864   0.95907   0.37500   0.00000  Uiso   1.00
C142   C     0.86661   0.97227   0.37507   0.00000  Uiso   1.00
C143   C     0.88180   0.97228   0.37515   0.00000  Uiso   1.00
C144   C     0.88977   0.95907   0.37517   0.00000  Uiso   1.00
H41    H     0.78915   0.84668   0.37444   0.00000  Uiso   1.00
O17    O     0.76258   0.85889   0.37434   0.00000  Uiso   1.00
O18    O     0.76262   0.88964   0.37435   0.00000  Uiso   1.00
H42    H     0.78921   0.90178   0.37449   0.00000  Uiso   1.00
H43    H     0.84669   0.78914   0.37443   0.00000  Uiso   1.00
O19    O     0.85889   0.76257   0.37432   0.00000  Uiso   1.00
O20    O     0.88964   0.76262   0.37433   0.00000  Uiso   1.00
H44    H     0.90178   0.78920   0.37447   0.00000  Uiso   1.00
H45    H     0.95937   0.84666   0.37494   0.00000  Uiso   1.00
O21    O     0.98598   0.85989   0.37505   0.00000  Uiso   1.00
O22    O     0.98598   0.88851   0.37522   0.00000  Uiso   1.00
H46    H     0.95937   0.90173   0.37524   0.00000  Uiso   1.00
H47    H     0.84667   0.95936   0.37493   0.00000  Uiso   1.00
O23    O     0.85989   0.98598   0.37505   0.00000  Uiso   1.00
O24    O     0.88852   0.98598   0.37521   0.00000  Uiso   1.00
H48    H     0.90174   0.95937   0.37524   0.00000  Uiso   1.00
Ni3    Ni    0.87420   0.87420   0.37484   0.00000  Uiso   1.00
C145   C     0.11005   0.81637   0.37462   0.00000  Uiso   1.00
C146   C     0.11783   0.80286   0.37455   0.00000  Uiso   1.00
C147   C     0.13365   0.80285   0.37453   0.00000  Uiso   1.00
C148   C     0.14145   0.81635   0.37459   0.00000  Uiso   1.00
C149   C     0.13326   0.82940   0.37466   0.00000  Uiso   1.00
C150   C     0.11825   0.82941   0.37468   0.00000  Uiso   1.00
C151   C     0.11396   0.84400   0.37475   0.00000  Uiso   1.00
N25    N     0.12576   0.85329   0.37477   0.00000  Uiso   1.00
C152   C     0.13756   0.84400   0.37471   0.00000  Uiso   1.00
N26    N     0.15171   0.84827   0.37469   0.00000  Uiso   1.00
C153   C     0.15599   0.86243   0.37471   0.00000  Uiso   1.00
N27    N     0.14670   0.87423   0.37477   0.00000  Uiso   1.00
C154   C     0.15599   0.88603   0.37474   0.00000  Uiso   1.00
C155   C     0.17058   0.88174   0.37467   0.00000  Uiso   1.00
C156   C     0.17059   0.86673   0.37465   0.00000  Uiso   1.00
N28    N     0.12576   0.89516   0.37492   0.00000  Uiso   1.00
C157   C     0.13756   0.90446   0.37488   0.00000  Uiso   1.00
N29    N     0.15171   0.90018   0.37479   0.00000  Uiso   1.00
C158   C     0.13327   0.91905   0.37495   0.00000  Uiso   1.00
C159   C     0.11825   0.91905   0.37504   0.00000  Uiso   1.00
C160   C     0.11396   0.90445   0.37502   0.00000  Uiso   1.00
C161   C     0.18363   0.85854   0.37458   0.00000  Uiso   1.00
C162   C     0.19714   0.86635   0.37452   0.00000  Uiso   1.00
C163   C     0.19712   0.88217   0.37453   0.00000  Uiso   1.00
C164   C     0.18361   0.88995   0.37461   0.00000  Uiso   1.00
C165   C     0.11005   0.93208   0.37512   0.00000  Uiso   1.00
C166   C     0.11784   0.94559   0.37511   0.00000  Uiso   1.00
C167   C     0.13369   0.94559   0.37502   0.00000  Uiso   1.00
C168   C     0.14148   0.93208   0.37494   0.00000  Uiso   1.00
N30    N     0.10482   0.87422   0.37492   0.00000  Uiso   1.00
C169   C     0.09553   0.88602   0.37502   0.00000  Uiso   1.00
N31    N     0.09981   0.90017   0.37506   0.00000  Uiso   1.00
C170   C     0.08094   0.88173   0.37504   0.00000  Uiso   1.00
C171   C     0.08094   0.86671   0.37495   0.00000  Uiso   1.00
C172   C     0.09553   0.86242   0.37488   0.00000  Uiso   1.00
C173   C     0.06790   0.85850   0.37494   0.00000  Uiso   1.00
C174   C     0.05440   0.86629   0.37502   0.00000  Uiso   1.00
C175   C     0.05440   0.88214   0.37511   0.00000  Uiso   1.00
C176   C     0.06790   0.88993   0.37512   0.00000  Uiso   1.00
N32    N     0.09981   0.84827   0.37480   0.00000  Uiso   1.00
H49    H     0.09808   0.81670   0.37464   0.00000  Uiso   1.00
H50    H     0.15342   0.81667   0.37458   0.00000  Uiso   1.00
H51    H     0.18332   0.84657   0.37457   0.00000  Uiso   1.00
H52    H     0.18328   0.90192   0.37462   0.00000  Uiso   1.00
H53    H     0.09808   0.93176   0.37518   0.00000  Uiso   1.00
H54    H     0.15345   0.93176   0.37487   0.00000  Uiso   1.00
H55    H     0.06823   0.84653   0.37487   0.00000  Uiso   1.00
H56    H     0.06822   0.90190   0.37518   0.00000  Uiso   1.00
C177   C     0.04089   0.85864   0.37500   0.00000  Uiso   1.00
C178   C     0.02768   0.86661   0.37507   0.00000  Uiso   1.00
C179   C     0.02768   0.88180   0.37516   0.00000  Uiso   1.00
C180   C     0.04089   0.88978   0.37518   0.00000  Uiso   1.00
C181   C     0.11015   0.78940   0.37449   0.00000  Uiso   1.00
C182   C     0.11791   0.77606   0.37442   0.00000  Uiso   1.00
C183   C     0.13351   0.77604   0.37441   0.00000  Uiso   1.00
C184   C     0.14130   0.78937   0.37447   0.00000  Uiso   1.00
C185   C     0.21062   0.85870   0.37445   0.00000  Uiso   1.00
C186   C     0.22394   0.86649   0.37439   0.00000  Uiso   1.00
C187   C     0.22393   0.88209   0.37439   0.00000  Uiso   1.00
C188   C     0.21058   0.88985   0.37446   0.00000  Uiso   1.00
C189   C     0.11020   0.95910   0.37518   0.00000  Uiso   1.00
C190   C     0.11818   0.97230   0.37516   0.00000  Uiso   1.00
C191   C     0.13336   0.97230   0.37507   0.00000  Uiso   1.00
C192   C     0.14134   0.95910   0.37500   0.00000  Uiso   1.00
H57    H     0.04060   0.84667   0.37493   0.00000  Uiso   1.00
O25    O     0.01398   0.85989   0.37506   0.00000  Uiso   1.00
O26    O     0.01398   0.88852   0.37522   0.00000  Uiso   1.00
H58    H     0.04059   0.90175   0.37525   0.00000  Uiso   1.00
H59    H     0.09818   0.78922   0.37449   0.00000  Uiso   1.00
O27    O     0.11032   0.76264   0.37436   0.00000  Uiso   1.00
O28    O     0.14107   0.76261   0.37436   0.00000  Uiso   1.00
H60    H     0.15327   0.78918   0.37446   0.00000  Uiso   1.00
H61    H     0.21081   0.84673   0.37444   0.00000  Uiso   1.00
O29    O     0.23738   0.85893   0.37433   0.00000  Uiso   1.00
O30    O     0.23734   0.88969   0.37433   0.00000  Uiso   1.00
H62    H     0.21076   0.90182   0.37447   0.00000  Uiso   1.00
H63    H     0.09823   0.95939   0.37525   0.00000  Uiso   1.00
O31    O     0.11146   0.98601   0.37522   0.00000  Uiso   1.00
O32    O     0.14008   0.98601   0.37506   0.00000  Uiso   1.00
H64    H     0.15330   0.95939   0.37493   0.00000  Uiso   1.00
Ni4    Ni    0.12576   0.87422   0.37485   0.00000  Uiso   1.00
C193   C     0.11007   0.81639   0.62542   0.00000  Uiso   1.00
C194   C     0.11785   0.80288   0.62550   0.00000  Uiso   1.00
C195   C     0.13367   0.80287   0.62551   0.00000  Uiso   1.00
C196   C     0.14148   0.81637   0.62545   0.00000  Uiso   1.00
C197   C     0.13329   0.82942   0.62538   0.00000  Uiso   1.00
C198   C     0.11828   0.82943   0.62537   0.00000  Uiso   1.00
C199   C     0.11399   0.84402   0.62530   0.00000  Uiso   1.00
N33    N     0.12579   0.85331   0.62527   0.00000  Uiso   1.00
C200   C     0.13759   0.84401   0.62533   0.00000  Uiso   1.00
N34    N     0.15174   0.84829   0.62535   0.00000  Uiso   1.00
C201   C     0.15602   0.86245   0.62532   0.00000  Uiso   1.00
N35    N     0.14673   0.87424   0.62527   0.00000  Uiso   1.00
C202   C     0.15602   0.88604   0.62529   0.00000  Uiso   1.00
C203   C     0.17061   0.88175   0.62536   0.00000  Uiso   1.00
C204   C     0.17061   0.86675   0.62537   0.00000  Uiso   1.00
N36    N     0.12579   0.89518   0.62512   0.00000  Uiso   1.00
C205   C     0.13759   0.90447   0.62515   0.00000  Uiso   1.00
N37    N     0.15174   0.90020   0.62524   0.00000  Uiso   1.00
C206   C     0.13330   0.91907   0.62509   0.00000  Uiso   1.00
C207   C     0.11829   0.91907   0.62500   0.00000  Uiso   1.00
C208   C     0.11399   0.90447   0.62502   0.00000  Uiso   1.00
C209   C     0.18366   0.85856   0.62544   0.00000  Uiso   1.00
C210   C     0.19717   0.86636   0.62549   0.00000  Uiso   1.00
C211   C     0.19715   0.88218   0.62548   0.00000  Uiso   1.00
C212   C     0.18364   0.88996   0.62541   0.00000  Uiso   1.00
C213   C     0.11008   0.93210   0.62492   0.00000  Uiso   1.00
C214   C     0.11787   0.94561   0.62493   0.00000  Uiso   1.00
C215   C     0.13372   0.94561   0.62502   0.00000  Uiso   1.00
C216   C     0.14151   0.93210   0.62509   0.00000  Uiso   1.00
N38    N     0.10485   0.87424   0.62512   0.00000  Uiso   1.00
C217   C     0.09556   0.88604   0.62502   0.00000  Uiso   1.00
N39    N     0.09984   0.90020   0.62498   0.00000  Uiso   1.00
C218   C     0.08097   0.88175   0.62500   0.00000  Uiso   1.00
C219   C     0.08097   0.86674   0.62509   0.00000  Uiso   1.00
C220   C     0.09556   0.86245   0.62516   0.00000  Uiso   1.00
C221   C     0.06793   0.85852   0.62509   0.00000  Uiso   1.00
C222   C     0.05443   0.86631   0.62501   0.00000  Uiso   1.00
C223   C     0.05443   0.88216   0.62492   0.00000  Uiso   1.00
C224   C     0.06793   0.88996   0.62492   0.00000  Uiso   1.00
N40    N     0.09984   0.84829   0.62524   0.00000  Uiso   1.00
H65    H     0.09810   0.81672   0.62541   0.00000  Uiso   1.00
H66    H     0.15345   0.81669   0.62547   0.00000  Uiso   1.00
H67    H     0.18334   0.84659   0.62545   0.00000  Uiso   1.00
H68    H     0.18331   0.90193   0.62540   0.00000  Uiso   1.00
H69    H     0.09811   0.93178   0.62486   0.00000  Uiso   1.00
H70    H     0.15348   0.93178   0.62516   0.00000  Uiso   1.00
H71    H     0.06825   0.84656   0.62517   0.00000  Uiso   1.00
H72    H     0.06825   0.90192   0.62485   0.00000  Uiso   1.00
C225   C     0.04092   0.85866   0.62502   0.00000  Uiso   1.00
C226   C     0.02771   0.86664   0.62495   0.00000  Uiso   1.00
C227   C     0.02771   0.88182   0.62486   0.00000  Uiso   1.00
C228   C     0.04092   0.88980   0.62485   0.00000  Uiso   1.00
C229   C     0.11017   0.78942   0.62557   0.00000  Uiso   1.00
C230   C     0.11793   0.77608   0.62564   0.00000  Uiso   1.00
C231   C     0.13354   0.77606   0.62564   0.00000  Uiso   1.00
C232   C     0.14133   0.78939   0.62558   0.00000  Uiso   1.00
C233   C     0.21064   0.85871   0.62556   0.00000  Uiso   1.00
C234   C     0.22397   0.86650   0.62561   0.00000  Uiso   1.00
C235   C     0.22396   0.88210   0.62561   0.00000  Uiso   1.00
C236   C     0.21062   0.88986   0.62554   0.00000  Uiso   1.00
C237   C     0.11023   0.95912   0.62485   0.00000  Uiso   1.00
C238   C     0.11821   0.97232   0.62487   0.00000  Uiso   1.00
C239   C     0.13340   0.97232   0.62496   0.00000  Uiso   1.00
C240   C     0.14137   0.95912   0.62503   0.00000  Uiso   1.00
H73    H     0.04062   0.84670   0.62509   0.00000  Uiso   1.00
O33    O     0.01401   0.85992   0.62496   0.00000  Uiso   1.00
O34    O     0.01401   0.88854   0.62479   0.00000  Uiso   1.00
H74    H     0.04062   0.90177   0.62478   0.00000  Uiso   1.00
H75    H     0.09820   0.78925   0.62556   0.00000  Uiso   1.00
O35    O     0.11034   0.76266   0.62569   0.00000  Uiso   1.00
O36    O     0.14109   0.76262   0.62569   0.00000  Uiso   1.00
H76    H     0.15330   0.78919   0.62559   0.00000  Uiso   1.00
H77    H     0.21084   0.84674   0.62556   0.00000  Uiso   1.00
O37    O     0.23741   0.85894   0.62566   0.00000  Uiso   1.00
O38    O     0.23737   0.88969   0.62566   0.00000  Uiso   1.00
H78    H     0.21079   0.90183   0.62554   0.00000  Uiso   1.00
H79    H     0.09826   0.95941   0.62479   0.00000  Uiso   1.00
O39    O     0.11149   0.98603   0.62481   0.00000  Uiso   1.00
O40    O     0.14012   0.98603   0.62497   0.00000  Uiso   1.00
H80    H     0.15334   0.95941   0.62509   0.00000  Uiso   1.00
Ni5    Ni    0.12579   0.87424   0.62519   0.00000  Uiso   1.00
C241   C     0.11009   0.06794   0.62490   0.00000  Uiso   1.00
C242   C     0.11788   0.05444   0.62491   0.00000  Uiso   1.00
C243   C     0.13373   0.05444   0.62500   0.00000  Uiso   1.00
C244   C     0.14152   0.06795   0.62507   0.00000  Uiso   1.00
C245   C     0.13331   0.08098   0.62506   0.00000  Uiso   1.00
C246   C     0.11830   0.08098   0.62498   0.00000  Uiso   1.00
C247   C     0.11401   0.09557   0.62500   0.00000  Uiso   1.00
N41    N     0.12581   0.10487   0.62509   0.00000  Uiso   1.00
C248   C     0.13760   0.09558   0.62513   0.00000  Uiso   1.00
N42    N     0.15176   0.09985   0.62521   0.00000  Uiso   1.00
C249   C     0.15603   0.11401   0.62527   0.00000  Uiso   1.00
N43    N     0.14674   0.12581   0.62524   0.00000  Uiso   1.00
C250   C     0.15604   0.13761   0.62530   0.00000  Uiso   1.00
C251   C     0.17063   0.13331   0.62536   0.00000  Uiso   1.00
C252   C     0.17062   0.11830   0.62534   0.00000  Uiso   1.00
N44    N     0.12581   0.14674   0.62524   0.00000  Uiso   1.00
C253   C     0.13761   0.15604   0.62530   0.00000  Uiso   1.00
N45    N     0.15176   0.15176   0.62533   0.00000  Uiso   1.00
C254   C     0.13331   0.17063   0.62536   0.00000  Uiso   1.00
C255   C     0.11830   0.17062   0.62534   0.00000  Uiso   1.00
C256   C     0.11401   0.15603   0.62527   0.00000  Uiso   1.00
C257   C     0.18366   0.11009   0.62539   0.00000  Uiso   1.00
C258   C     0.19717   0.11788   0.62547   0.00000  Uiso   1.00
C259   C     0.19718   0.13369   0.62549   0.00000  Uiso   1.00
C260   C     0.18368   0.14150   0.62543   0.00000  Uiso   1.00
C261   C     0.11010   0.18365   0.62539   0.00000  Uiso   1.00
C262   C     0.11788   0.19716   0.62547   0.00000  Uiso   1.00
C263   C     0.13370   0.19718   0.62549   0.00000  Uiso   1.00
C264   C     0.14150   0.18368   0.62543   0.00000  Uiso   1.00
N46    N     0.10487   0.12580   0.62509   0.00000  Uiso   1.00
C265   C     0.09558   0.13760   0.62512   0.00000  Uiso   1.00
N47    N     0.09986   0.15175   0.62521   0.00000  Uiso   1.00
C266   C     0.08099   0.13331   0.62505   0.00000  Uiso   1.00
C267   C     0.08099   0.11829   0.62497   0.00000  Uiso   1.00
C268   C     0.09558   0.11400   0.62500   0.00000  Uiso   1.00
C269   C     0.06795   0.11008   0.62489   0.00000  Uiso   1.00
C270   C     0.05445   0.11788   0.62490   0.00000  Uiso   1.00
C271   C     0.05445   0.13373   0.62498   0.00000  Uiso   1.00
C272   C     0.06795   0.14152   0.62506   0.00000  Uiso   1.00
N48    N     0.09985   0.09985   0.62495   0.00000  Uiso   1.00
H81    H     0.09812   0.06826   0.62484   0.00000  Uiso   1.00
H82    H     0.15349   0.06827   0.62514   0.00000  Uiso   1.00
H83    H     0.18332   0.09812   0.62538   0.00000  Uiso   1.00
H84    H     0.18337   0.15347   0.62545   0.00000  Uiso   1.00
H85    H     0.09813   0.18332   0.62538   0.00000  Uiso   1.00
H86    H     0.15347   0.18336   0.62545   0.00000  Uiso   1.00
H87    H     0.06827   0.09812   0.62483   0.00000  Uiso   1.00
H88    H     0.06828   0.15348   0.62513   0.00000  Uiso   1.00
C273   C     0.04093   0.11023   0.62482   0.00000  Uiso   1.00
C274   C     0.02773   0.11821   0.62484   0.00000  Uiso   1.00
C275   C     0.02773   0.13339   0.62492   0.00000  Uiso   1.00
C276   C     0.04094   0.14137   0.62500   0.00000  Uiso   1.00
C277   C     0.11024   0.04093   0.62484   0.00000  Uiso   1.00
C278   C     0.11822   0.02772   0.62486   0.00000  Uiso   1.00
C279   C     0.13340   0.02772   0.62495   0.00000  Uiso   1.00
C280   C     0.14138   0.04093   0.62501   0.00000  Uiso   1.00
C281   C     0.21063   0.11020   0.62553   0.00000  Uiso   1.00
C282   C     0.22397   0.11796   0.62560   0.00000  Uiso   1.00
C283   C     0.22399   0.13356   0.62561   0.00000  Uiso   1.00
C284   C     0.21067   0.14135   0.62556   0.00000  Uiso   1.00
C285   C     0.11020   0.21062   0.62553   0.00000  Uiso   1.00
C286   C     0.11796   0.22397   0.62560   0.00000  Uiso   1.00
C287   C     0.13356   0.22399   0.62561   0.00000  Uiso   1.00
C288   C     0.14135   0.21066   0.62556   0.00000  Uiso   1.00
H89    H     0.04064   0.09826   0.62476   0.00000  Uiso   1.00
O41    O     0.01403   0.11149   0.62478   0.00000  Uiso   1.00
O42    O     0.01403   0.14011   0.62494   0.00000  Uiso   1.00
H90    H     0.04064   0.15334   0.62506   0.00000  Uiso   1.00
H91    H     0.09827   0.04063   0.62477   0.00000  Uiso   1.00
O43    O     0.11150   0.01402   0.62480   0.00000  Uiso   1.00
O44    O     0.14012   0.01402   0.62496   0.00000  Uiso   1.00
H92    H     0.15334   0.04064   0.62508   0.00000  Uiso   1.00
H93    H     0.21080   0.09822   0.62552   0.00000  Uiso   1.00
O45    O     0.23739   0.11036   0.62566   0.00000  Uiso   1.00
O46    O     0.23743   0.14112   0.62567   0.00000  Uiso   1.00
H94    H     0.21086   0.15332   0.62556   0.00000  Uiso   1.00
H95    H     0.09823   0.21079   0.62552   0.00000  Uiso   1.00
O47    O     0.11036   0.23738   0.62566   0.00000  Uiso   1.00
O48    O     0.14112   0.23743   0.62567   0.00000  Uiso   1.00
H96    H     0.15332   0.21086   0.62557   0.00000  Uiso   1.00
Ni6    Ni    0.12581   0.12580   0.62517   0.00000  Uiso   1.00
C289   C     0.85853   0.06792   0.62505   0.00000  Uiso   1.00
C290   C     0.86632   0.05442   0.62497   0.00000  Uiso   1.00
C291   C     0.88217   0.05442   0.62488   0.00000  Uiso   1.00
C292   C     0.88996   0.06792   0.62487   0.00000  Uiso   1.00
C293   C     0.88176   0.08096   0.62495   0.00000  Uiso   1.00
C294   C     0.86674   0.08096   0.62504   0.00000  Uiso   1.00
C295   C     0.86245   0.09555   0.62511   0.00000  Uiso   1.00
N49    N     0.87425   0.10484   0.62507   0.00000  Uiso   1.00
C296   C     0.88605   0.09555   0.62498   0.00000  Uiso   1.00
N50    N     0.90020   0.09983   0.62493   0.00000  Uiso   1.00
C297   C     0.90448   0.11399   0.62498   0.00000  Uiso   1.00
N51    N     0.89519   0.12578   0.62507   0.00000  Uiso   1.00
C298   C     0.90448   0.13758   0.62511   0.00000  Uiso   1.00
C299   C     0.91907   0.13329   0.62504   0.00000  Uiso   1.00
C300   C     0.91907   0.11828   0.62495   0.00000  Uiso   1.00
N52    N     0.87425   0.14672   0.62523   0.00000  Uiso   1.00
C301   C     0.88605   0.15601   0.62525   0.00000  Uiso   1.00
N53    N     0.90020   0.15173   0.62520   0.00000  Uiso   1.00
C302   C     0.88176   0.17060   0.62532   0.00000  Uiso   1.00
C303   C     0.86675   0.17060   0.62534   0.00000  Uiso   1.00
C304   C     0.86245   0.15601   0.62529   0.00000  Uiso   1.00
C305   C     0.93211   0.11007   0.62487   0.00000  Uiso   1.00
C306   C     0.94561   0.11787   0.62488   0.00000  Uiso   1.00
C307   C     0.94561   0.13372   0.62497   0.00000  Uiso   1.00
C308   C     0.93211   0.14151   0.62505   0.00000  Uiso   1.00
C309   C     0.85856   0.18365   0.62541   0.00000  Uiso   1.00
C310   C     0.86636   0.19716   0.62547   0.00000  Uiso   1.00
C311   C     0.88218   0.19715   0.62545   0.00000  Uiso   1.00
C312   C     0.88997   0.18364   0.62538   0.00000  Uiso   1.00
N54    N     0.85331   0.12578   0.62523   0.00000  Uiso   1.00
C313   C     0.84402   0.13758   0.62529   0.00000  Uiso   1.00
N55    N     0.84830   0.15173   0.62531   0.00000  Uiso   1.00
C314   C     0.82943   0.13328   0.62535   0.00000  Uiso   1.00
C315   C     0.82943   0.11827   0.62533   0.00000  Uiso   1.00
C316   C     0.84402   0.11398   0.62526   0.00000  Uiso   1.00
C317   C     0.81640   0.11006   0.62539   0.00000  Uiso   1.00
C318   C     0.80289   0.11784   0.62547   0.00000  Uiso   1.00
C319   C     0.80287   0.13366   0.62548   0.00000  Uiso   1.00
C320   C     0.81638   0.14147   0.62542   0.00000  Uiso   1.00
N56    N     0.84830   0.09983   0.62520   0.00000  Uiso   1.00
H97    H     0.84656   0.06824   0.62512   0.00000  Uiso   1.00
H98    H     0.90193   0.06824   0.62481   0.00000  Uiso   1.00
H99    H     0.93179   0.09811   0.62481   0.00000  Uiso   1.00
H100   H     0.93178   0.15347   0.62512   0.00000  Uiso   1.00
H101   H     0.84659   0.18333   0.62543   0.00000  Uiso   1.00
H102   H     0.90193   0.18330   0.62536   0.00000  Uiso   1.00
H103   H     0.81673   0.09809   0.62538   0.00000  Uiso   1.00
H104   H     0.81669   0.15344   0.62544   0.00000  Uiso   1.00
C321   C     0.78943   0.11016   0.62554   0.00000  Uiso   1.00
C322   C     0.77609   0.11792   0.62561   0.00000  Uiso   1.00
C323   C     0.77607   0.13352   0.62562   0.00000  Uiso   1.00
C324   C     0.78939   0.14131   0.62556   0.00000  Uiso   1.00
C325   C     0.85867   0.04091   0.62499   0.00000  Uiso   1.00
C326   C     0.86665   0.02770   0.62491   0.00000  Uiso   1.00
C327   C     0.88183   0.02770   0.62483   0.00000  Uiso   1.00
C328   C     0.88981   0.04091   0.62481   0.00000  Uiso   1.00
C329   C     0.95912   0.11023   0.62481   0.00000  Uiso   1.00
C330   C     0.97233   0.11820   0.62483   0.00000  Uiso   1.00
C331   C     0.97233   0.13339   0.62492   0.00000  Uiso   1.00
C332   C     0.95912   0.14136   0.62499   0.00000  Uiso   1.00
C333   C     0.85871   0.21063   0.62554   0.00000  Uiso   1.00
C334   C     0.86650   0.22396   0.62559   0.00000  Uiso   1.00
C335   C     0.88210   0.22395   0.62559   0.00000  Uiso   1.00
C336   C     0.88986   0.21061   0.62552   0.00000  Uiso   1.00
H105   H     0.78925   0.09819   0.62553   0.00000  Uiso   1.00
O49    O     0.76267   0.11033   0.62567   0.00000  Uiso   1.00
O50    O     0.76263   0.14108   0.62567   0.00000  Uiso   1.00
H106   H     0.78920   0.15328   0.62556   0.00000  Uiso   1.00
H107   H     0.84671   0.04061   0.62506   0.00000  Uiso   1.00
O51    O     0.85993   0.01400   0.62493   0.00000  Uiso   1.00
O52    O     0.88855   0.01400   0.62476   0.00000  Uiso   1.00
H108   H     0.90178   0.04061   0.62474   0.00000  Uiso   1.00
H109   H     0.95942   0.09826   0.62475   0.00000  Uiso   1.00
O53    O     0.98603   0.11149   0.62477   0.00000  Uiso   1.00
O54    O     0.98603   0.14011   0.62493   0.00000  Uiso   1.00
H110   H     0.95942   0.15333   0.62505   0.00000  Uiso   1.00
H111   H     0.84674   0.21083   0.62555   0.00000  Uiso   1.00
O55    O     0.85894   0.23740   0.62565   0.00000  Uiso   1.00
O56    O     0.88969   0.23737   0.62564   0.00000  Uiso   1.00
H112   H     0.90183   0.21078   0.62551   0.00000  Uiso   1.00
Ni7    Ni    0.87425   0.12578   0.62515   0.00000  Uiso   1.00
C337   C     0.85853   0.81635   0.62541   0.00000  Uiso   1.00
C338   C     0.86634   0.80285   0.62547   0.00000  Uiso   1.00
C339   C     0.88216   0.80286   0.62545   0.00000  Uiso   1.00
C340   C     0.88994   0.81637   0.62538   0.00000  Uiso   1.00
C341   C     0.88174   0.82941   0.62532   0.00000  Uiso   1.00
C342   C     0.86673   0.82940   0.62534   0.00000  Uiso   1.00
C343   C     0.86243   0.84399   0.62529   0.00000  Uiso   1.00
N57    N     0.87423   0.85329   0.62523   0.00000  Uiso   1.00
C344   C     0.88603   0.84400   0.62525   0.00000  Uiso   1.00
N58    N     0.90018   0.84828   0.62520   0.00000  Uiso   1.00
C345   C     0.90446   0.86243   0.62511   0.00000  Uiso   1.00
N59    N     0.89517   0.87423   0.62508   0.00000  Uiso   1.00
C346   C     0.90446   0.88602   0.62498   0.00000  Uiso   1.00
C347   C     0.91905   0.88173   0.62496   0.00000  Uiso   1.00
C348   C     0.91905   0.86672   0.62505   0.00000  Uiso   1.00
N60    N     0.87424   0.89516   0.62508   0.00000  Uiso   1.00
C349   C     0.88603   0.90445   0.62498   0.00000  Uiso   1.00
N61    N     0.90019   0.90018   0.62494   0.00000  Uiso   1.00
C350   C     0.88174   0.91905   0.62496   0.00000  Uiso   1.00
C351   C     0.86673   0.91904   0.62505   0.00000  Uiso   1.00
C352   C     0.86244   0.90445   0.62512   0.00000  Uiso   1.00
C353   C     0.93209   0.85851   0.62506   0.00000  Uiso   1.00
C354   C     0.94559   0.86630   0.62498   0.00000  Uiso   1.00
C355   C     0.94559   0.88215   0.62489   0.00000  Uiso   1.00
C356   C     0.93209   0.88994   0.62488   0.00000  Uiso   1.00
C357   C     0.85852   0.93208   0.62506   0.00000  Uiso   1.00
C358   C     0.86631   0.94558   0.62498   0.00000  Uiso   1.00
C359   C     0.88216   0.94559   0.62489   0.00000  Uiso   1.00
C360   C     0.88995   0.93208   0.62488   0.00000  Uiso   1.00
N62    N     0.85330   0.87422   0.62523   0.00000  Uiso   1.00
C361   C     0.84401   0.88602   0.62526   0.00000  Uiso   1.00
N63    N     0.84829   0.90017   0.62520   0.00000  Uiso   1.00
C362   C     0.82941   0.88173   0.62533   0.00000  Uiso   1.00
C363   C     0.82941   0.86672   0.62535   0.00000  Uiso   1.00
C364   C     0.84400   0.86242   0.62529   0.00000  Uiso   1.00
C365   C     0.81636   0.85853   0.62542   0.00000  Uiso   1.00
C366   C     0.80285   0.86634   0.62548   0.00000  Uiso   1.00
C367   C     0.80287   0.88215   0.62546   0.00000  Uiso   1.00
C368   C     0.81638   0.88994   0.62539   0.00000  Uiso   1.00
N64    N     0.84828   0.84827   0.62531   0.00000  Uiso   1.00
H113   H     0.84657   0.81667   0.62543   0.00000  Uiso   1.00
H114   H     0.90191   0.81671   0.62536   0.00000  Uiso   1.00
H115   H     0.93176   0.84654   0.62513   0.00000  Uiso   1.00
H116   H     0.93177   0.90191   0.62482   0.00000  Uiso   1.00
H117   H     0.84655   0.93176   0.62513   0.00000  Uiso   1.00
H118   H     0.90192   0.93176   0.62481   0.00000  Uiso   1.00
H119   H     0.81667   0.84656   0.62543   0.00000  Uiso   1.00
H120   H     0.81672   0.90190   0.62538   0.00000  Uiso   1.00
C369   C     0.78937   0.85868   0.62555   0.00000  Uiso   1.00
C370   C     0.77605   0.86647   0.62560   0.00000  Uiso   1.00
C371   C     0.77607   0.88207   0.62560   0.00000  Uiso   1.00
C372   C     0.78941   0.88983   0.62553   0.00000  Uiso   1.00
C373   C     0.85868   0.78937   0.62553   0.00000  Uiso   1.00
C374   C     0.86647   0.77604   0.62559   0.00000  Uiso   1.00
C375   C     0.88207   0.77606   0.62558   0.00000  Uiso   1.00
C376   C     0.88983   0.78940   0.62551   0.00000  Uiso   1.00
C377   C     0.95910   0.85866   0.62500   0.00000  Uiso   1.00
C378   C     0.97231   0.86663   0.62493   0.00000  Uiso   1.00
C379   C     0.97231   0.88182   0.62484   0.00000  Uiso   1.00
C380   C     0.95911   0.88979   0.62482   0.00000  Uiso   1.00
C381   C     0.85867   0.95909   0.62499   0.00000  Uiso   1.00
C382   C     0.86664   0.97230   0.62492   0.00000  Uiso   1.00
C383   C     0.88183   0.97230   0.62483   0.00000  Uiso   1.00
C384   C     0.88981   0.95910   0.62481   0.00000  Uiso   1.00
H121   H     0.78918   0.84671   0.62555   0.00000  Uiso   1.00
O57    O     0.76261   0.85891   0.62566   0.00000  Uiso   1.00
O58    O     0.76265   0.88967   0.62566   0.00000  Uiso   1.00
H122   H     0.78924   0.90181   0.62552   0.00000  Uiso   1.00
H123   H     0.84671   0.78917   0.62554   0.00000  Uiso   1.00
O59    O     0.85891   0.76260   0.62564   0.00000  Uiso   1.00
O60    O     0.88967   0.76264   0.62564   0.00000  Uiso   1.00
H124   H     0.90181   0.78923   0.62551   0.00000  Uiso   1.00
H125   H     0.95940   0.84669   0.62507   0.00000  Uiso   1.00
O61    O     0.98601   0.85991   0.62495   0.00000  Uiso   1.00
O62    O     0.98601   0.88854   0.62479   0.00000  Uiso   1.00
H126   H     0.95940   0.90176   0.62475   0.00000  Uiso   1.00
H127   H     0.84670   0.95939   0.62506   0.00000  Uiso   1.00
O63    O     0.85992   0.98600   0.62493   0.00000  Uiso   1.00
O64    O     0.88855   0.98600   0.62477   0.00000  Uiso   1.00
H128   H     0.90177   0.95939   0.62474   0.00000  Uiso   1.00
Ni8    Ni    0.87423   0.87422   0.62515   0.00000  Uiso   1.00
C385   C     0.37454   0.18365   0.14148   0.00000  Uiso   1.00
C386   C     0.37448   0.19716   0.13368   0.00000  Uiso   1.00
C387   C     0.37450   0.19714   0.11786   0.00000  Uiso   1.00
C388   C     0.37457   0.18363   0.11007   0.00000  Uiso   1.00
C389   C     0.37462   0.17060   0.11828   0.00000  Uiso   1.00
C390   C     0.37461   0.17060   0.13329   0.00000  Uiso   1.00
C391   C     0.37466   0.15601   0.13759   0.00000  Uiso   1.00
N65    N     0.37472   0.14671   0.12579   0.00000  Uiso   1.00
C392   C     0.37469   0.15600   0.11399   0.00000  Uiso   1.00
N66    N     0.37474   0.15173   0.09984   0.00000  Uiso   1.00
C393   C     0.37483   0.13757   0.09556   0.00000  Uiso   1.00
N67    N     0.37487   0.12578   0.10485   0.00000  Uiso   1.00
C394   C     0.37496   0.11398   0.09556   0.00000  Uiso   1.00
C395   C     0.37499   0.11827   0.08096   0.00000  Uiso   1.00
C396   C     0.37490   0.13328   0.08096   0.00000  Uiso   1.00
N68    N     0.37487   0.10484   0.12578   0.00000  Uiso   1.00
C397   C     0.37496   0.09555   0.11399   0.00000  Uiso   1.00
N69    N     0.37501   0.09983   0.09983   0.00000  Uiso   1.00
C398   C     0.37499   0.08096   0.11828   0.00000  Uiso   1.00
C399   C     0.37490   0.08096   0.13329   0.00000  Uiso   1.00
C400   C     0.37483   0.09555   0.13758   0.00000  Uiso   1.00
C401   C     0.37489   0.14149   0.06793   0.00000  Uiso   1.00
C402   C     0.37497   0.13370   0.05443   0.00000  Uiso   1.00
C403   C     0.37506   0.11785   0.05442   0.00000  Uiso   1.00
C404   C     0.37507   0.11006   0.06793   0.00000  Uiso   1.00
C405   C     0.37489   0.06792   0.14150   0.00000  Uiso   1.00
C406   C     0.37497   0.05442   0.13371   0.00000  Uiso   1.00
C407   C     0.37506   0.05442   0.11786   0.00000  Uiso   1.00
C408   C     0.37507   0.06792   0.11007   0.00000  Uiso   1.00
N70    N     0.37472   0.12578   0.14672   0.00000  Uiso   1.00
C409   C     0.37469   0.11398   0.15601   0.00000  Uiso   1.00
N71    N     0.37474   0.09983   0.15173   0.00000  Uiso   1.00
C410   C     0.37462   0.11827   0.17060   0.00000  Uiso   1.00
C411   C     0.37461   0.13328   0.17061   0.00000  Uiso   1.00
C412   C     0.37466   0.13758   0.15602   0.00000  Uiso   1.00
C413   C     0.37454   0.14147   0.18366   0.00000  Uiso   1.00
C414   C     0.37449   0.13367   0.19716   0.00000  Uiso   1.00
C415   C     0.37450   0.11785   0.19715   0.00000  Uiso   1.00
C416   C     0.37457   0.11007   0.18364   0.00000  Uiso   1.00
N72    N     0.37464   0.15173   0.15174   0.00000  Uiso   1.00
H129   H     0.37453   0.18334   0.15345   0.00000  Uiso   1.00
H130   H     0.37458   0.18330   0.09811   0.00000  Uiso   1.00
H131   H     0.37482   0.15346   0.06825   0.00000  Uiso   1.00
H132   H     0.37513   0.09809   0.06825   0.00000  Uiso   1.00
H133   H     0.37482   0.06824   0.15347   0.00000  Uiso   1.00
H134   H     0.37513   0.06824   0.09810   0.00000  Uiso   1.00
H135   H     0.37453   0.15344   0.18334   0.00000  Uiso   1.00
H136   H     0.37458   0.09810   0.18330   0.00000  Uiso   1.00
C417   C     0.37442   0.14132   0.21064   0.00000  Uiso   1.00
C418   C     0.37437   0.13353   0.22397   0.00000  Uiso   1.00
C419   C     0.37437   0.11793   0.22395   0.00000  Uiso   1.00
C420   C     0.37444   0.11017   0.21061   0.00000  Uiso   1.00
C421   C     0.37442   0.21064   0.14133   0.00000  Uiso   1.00
C422   C     0.37437   0.22396   0.13354   0.00000  Uiso   1.00
C423   C     0.37437   0.22394   0.11794   0.00000  Uiso   1.00
C424   C     0.37443   0.21060   0.11018   0.00000  Uiso   1.00
C425   C     0.37495   0.14134   0.04091   0.00000  Uiso   1.00
C426   C     0.37503   0.13337   0.02771   0.00000  Uiso   1.00
C427   C     0.37511   0.11818   0.02771   0.00000  Uiso   1.00
C428   C     0.37513   0.11021   0.04091   0.00000  Uiso   1.00
C429   C     0.37495   0.04091   0.14135   0.00000  Uiso   1.00
C430   C     0.37503   0.02770   0.13338   0.00000  Uiso   1.00
C431   C     0.37511   0.02770   0.11819   0.00000  Uiso   1.00
C432   C     0.37513   0.04091   0.11021   0.00000  Uiso   1.00
H137   H     0.37442   0.15330   0.21084   0.00000  Uiso   1.00
O65    O     0.37432   0.14109   0.23741   0.00000  Uiso   1.00
O66    O     0.37432   0.11034   0.23737   0.00000  Uiso   1.00
H138   H     0.37444   0.09820   0.21078   0.00000  Uiso   1.00
H139   H     0.37441   0.21083   0.15330   0.00000  Uiso   1.00
O67    O     0.37432   0.23740   0.14110   0.00000  Uiso   1.00
O68    O     0.37431   0.23736   0.11035   0.00000  Uiso   1.00
H140   H     0.37444   0.21077   0.09821   0.00000  Uiso   1.00
H141   H     0.37488   0.15331   0.04062   0.00000  Uiso   1.00
O69    O     0.37501   0.14009   0.01401   0.00000  Uiso   1.00
O70    O     0.37517   0.11146   0.01401   0.00000  Uiso   1.00
H142   H     0.37520   0.09824   0.04062   0.00000  Uiso   1.00
H143   H     0.37488   0.04061   0.15332   0.00000  Uiso   1.00
O71    O     0.37501   0.01400   0.14009   0.00000  Uiso   1.00
O72    O     0.37517   0.01400   0.11147   0.00000  Uiso   1.00
H144   H     0.37520   0.04061   0.09825   0.00000  Uiso   1.00
Ni9    Ni    0.37479   0.12578   0.12579   0.00000  Uiso   1.00
C433   C     0.85850   0.37495   0.06789   0.00000  Uiso   1.00
C434   C     0.86629   0.37503   0.05439   0.00000  Uiso   1.00
C435   C     0.88214   0.37511   0.05439   0.00000  Uiso   1.00
C436   C     0.88993   0.37512   0.06790   0.00000  Uiso   1.00
C437   C     0.88172   0.37504   0.08093   0.00000  Uiso   1.00
C438   C     0.86671   0.37496   0.08093   0.00000  Uiso   1.00
C439   C     0.86242   0.37489   0.09552   0.00000  Uiso   1.00
N73    N     0.87422   0.37492   0.10482   0.00000  Uiso   1.00
C440   C     0.88602   0.37502   0.09553   0.00000  Uiso   1.00
N74    N     0.90017   0.37506   0.09981   0.00000  Uiso   1.00
C441   C     0.90445   0.37501   0.11396   0.00000  Uiso   1.00
N75    N     0.89515   0.37492   0.12576   0.00000  Uiso   1.00
C442   C     0.90445   0.37488   0.13756   0.00000  Uiso   1.00
C443   C     0.91904   0.37495   0.13327   0.00000  Uiso   1.00
C444   C     0.91904   0.37504   0.11825   0.00000  Uiso   1.00
N76    N     0.87422   0.37476   0.14669   0.00000  Uiso   1.00
C445   C     0.88601   0.37473   0.15598   0.00000  Uiso   1.00
N77    N     0.90017   0.37479   0.15171   0.00000  Uiso   1.00
C446   C     0.88172   0.37466   0.17057   0.00000  Uiso   1.00
C447   C     0.86672   0.37464   0.17058   0.00000  Uiso   1.00
C448   C     0.86242   0.37470   0.15598   0.00000  Uiso   1.00
C449   C     0.93208   0.37512   0.11005   0.00000  Uiso   1.00
C450   C     0.94558   0.37510   0.11784   0.00000  Uiso   1.00
C451   C     0.94558   0.37501   0.13369   0.00000  Uiso   1.00
C452   C     0.93207   0.37493   0.14148   0.00000  Uiso   1.00
C453   C     0.85852   0.37456   0.18363   0.00000  Uiso   1.00
C454   C     0.86633   0.37450   0.19713   0.00000  Uiso   1.00
C455   C     0.88215   0.37452   0.19712   0.00000  Uiso   1.00
C456   C     0.88993   0.37460   0.18361   0.00000  Uiso   1.00
N78    N     0.85328   0.37476   0.12575   0.00000  Uiso   1.00
C457   C     0.84399   0.37471   0.13755   0.00000  Uiso   1.00
N79    N     0.84826   0.37468   0.15171   0.00000  Uiso   1.00
C458   C     0.82939   0.37465   0.13325   0.00000  Uiso   1.00
C459   C     0.82940   0.37467   0.11824   0.00000  Uiso   1.00
C460   C     0.84399   0.37474   0.11395   0.00000  Uiso   1.00
C461   C     0.81636   0.37462   0.11003   0.00000  Uiso   1.00
C462   C     0.80285   0.37454   0.11782   0.00000  Uiso   1.00
C463   C     0.80284   0.37453   0.13363   0.00000  Uiso   1.00
C464   C     0.81634   0.37458   0.14144   0.00000  Uiso   1.00
N80    N     0.84827   0.37480   0.09980   0.00000  Uiso   1.00
H145   H     0.84653   0.37488   0.06822   0.00000  Uiso   1.00
H146   H     0.90190   0.37519   0.06822   0.00000  Uiso   1.00
H147   H     0.93176   0.37518   0.09808   0.00000  Uiso   1.00
H148   H     0.93175   0.37486   0.15345   0.00000  Uiso   1.00
H149   H     0.84656   0.37455   0.18331   0.00000  Uiso   1.00
H150   H     0.90190   0.37461   0.18328   0.00000  Uiso   1.00
H151   H     0.81670   0.37463   0.09807   0.00000  Uiso   1.00
H152   H     0.81666   0.37457   0.15341   0.00000  Uiso   1.00
C465   C     0.78939   0.37448   0.11014   0.00000  Uiso   1.00
C466   C     0.77605   0.37441   0.11789   0.00000  Uiso   1.00
C467   C     0.77603   0.37440   0.13350   0.00000  Uiso   1.00
C468   C     0.78936   0.37446   0.14129   0.00000  Uiso   1.00
C469   C     0.85864   0.37501   0.04088   0.00000  Uiso   1.00
C470   C     0.86662   0.37508   0.02768   0.00000  Uiso   1.00
C471   C     0.88180   0.37517   0.02768   0.00000  Uiso   1.00
C472   C     0.88978   0.37519   0.04088   0.00000  Uiso   1.00
C473   C     0.95909   0.37518   0.11020   0.00000  Uiso   1.00
C474   C     0.97230   0.37515   0.11818   0.00000  Uiso   1.00
C475   C     0.97229   0.37506   0.13337   0.00000  Uiso   1.00
C476   C     0.95909   0.37499   0.14134   0.00000  Uiso   1.00
C477   C     0.85868   0.37443   0.21061   0.00000  Uiso   1.00
C478   C     0.86647   0.37437   0.22394   0.00000  Uiso   1.00
C479   C     0.88207   0.37437   0.22392   0.00000  Uiso   1.00
C480   C     0.88983   0.37445   0.21058   0.00000  Uiso   1.00
H153   H     0.78922   0.37449   0.09816   0.00000  Uiso   1.00
O73    O     0.76263   0.37436   0.11030   0.00000  Uiso   1.00
O74    O     0.76260   0.37435   0.14106   0.00000  Uiso   1.00
H154   H     0.78917   0.37445   0.15326   0.00000  Uiso   1.00
H155   H     0.84668   0.37495   0.04059   0.00000  Uiso   1.00
O75    O     0.85990   0.37507   0.01397   0.00000  Uiso   1.00
O76    O     0.88852   0.37523   0.01397   0.00000  Uiso   1.00
H156   H     0.90175   0.37526   0.04059   0.00000  Uiso   1.00
H157   H     0.95939   0.37525   0.09823   0.00000  Uiso   1.00
O77    O     0.98600   0.37522   0.11146   0.00000  Uiso   1.00
O78    O     0.98600   0.37505   0.14009   0.00000  Uiso   1.00
H158   H     0.95938   0.37492   0.15331   0.00000  Uiso   1.00
H159   H     0.84670   0.37442   0.21080   0.00000  Uiso   1.00
O79    O     0.85891   0.37431   0.23737   0.00000  Uiso   1.00
O80    O     0.88966   0.37431   0.23734   0.00000  Uiso   1.00
H160   H     0.90180   0.37445   0.21075   0.00000  Uiso   1.00
Ni10   Ni    0.87422   0.37484   0.12575   0.00000  Uiso   1.00
C481   C     0.62540   0.81639   0.11006   0.00000  Uiso   1.00
C482   C     0.62548   0.80287   0.11784   0.00000  Uiso   1.00
C483   C     0.62550   0.80286   0.13366   0.00000  Uiso   1.00
C484   C     0.62544   0.81636   0.14147   0.00000  Uiso   1.00
C485   C     0.62536   0.82941   0.13328   0.00000  Uiso   1.00
C486   C     0.62534   0.82942   0.11827   0.00000  Uiso   1.00
C487   C     0.62527   0.84401   0.11398   0.00000  Uiso   1.00
N81    N     0.62524   0.85330   0.12578   0.00000  Uiso   1.00
C488   C     0.62530   0.84401   0.13758   0.00000  Uiso   1.00
N82    N     0.62532   0.84828   0.15173   0.00000  Uiso   1.00
C489   C     0.62529   0.86244   0.15601   0.00000  Uiso   1.00
N83    N     0.62524   0.87424   0.14671   0.00000  Uiso   1.00
C490   C     0.62526   0.88604   0.15601   0.00000  Uiso   1.00
C491   C     0.62533   0.88175   0.17060   0.00000  Uiso   1.00
C492   C     0.62535   0.86674   0.17060   0.00000  Uiso   1.00
N84    N     0.62508   0.89517   0.12578   0.00000  Uiso   1.00
C493   C     0.62512   0.90447   0.13758   0.00000  Uiso   1.00
N85    N     0.62520   0.90019   0.15173   0.00000  Uiso   1.00
C494   C     0.62505   0.91906   0.13329   0.00000  Uiso   1.00
C495   C     0.62496   0.91906   0.11828   0.00000  Uiso   1.00
C496   C     0.62499   0.90447   0.11398   0.00000  Uiso   1.00
C497   C     0.62542   0.85855   0.18365   0.00000  Uiso   1.00
C498   C     0.62547   0.86635   0.19715   0.00000  Uiso   1.00
C499   C     0.62545   0.88217   0.19714   0.00000  Uiso   1.00
C500   C     0.62538   0.88995   0.18363   0.00000  Uiso   1.00
C501   C     0.62488   0.93210   0.11007   0.00000  Uiso   1.00
C502   C     0.62489   0.94560   0.11786   0.00000  Uiso   1.00
C503   C     0.62498   0.94560   0.13371   0.00000  Uiso   1.00
C504   C     0.62505   0.93210   0.14150   0.00000  Uiso   1.00
N86    N     0.62509   0.87424   0.10484   0.00000  Uiso   1.00
C505   C     0.62499   0.88604   0.09555   0.00000  Uiso   1.00
N87    N     0.62494   0.90019   0.09983   0.00000  Uiso   1.00
C506   C     0.62497   0.88174   0.08096   0.00000  Uiso   1.00
C507   C     0.62506   0.86673   0.08096   0.00000  Uiso   1.00
C508   C     0.62513   0.86244   0.09555   0.00000  Uiso   1.00
C509   C     0.62507   0.85852   0.06792   0.00000  Uiso   1.00
C510   C     0.62500   0.86631   0.05442   0.00000  Uiso   1.00
C511   C     0.62490   0.88216   0.05442   0.00000  Uiso   1.00
C512   C     0.62489   0.88995   0.06792   0.00000  Uiso   1.00
N88    N     0.62522   0.84829   0.09983   0.00000  Uiso   1.00
H161   H     0.62539   0.81672   0.09809   0.00000  Uiso   1.00
H162   H     0.62545   0.81668   0.15343   0.00000  Uiso   1.00
H163   H     0.62543   0.84658   0.18333   0.00000  Uiso   1.00
H164   H     0.62536   0.90192   0.18330   0.00000  Uiso   1.00
H165   H     0.62482   0.93178   0.09810   0.00000  Uiso   1.00
H166   H     0.62512   0.93177   0.15347   0.00000  Uiso   1.00
H167   H     0.62515   0.84655   0.06824   0.00000  Uiso   1.00
H168   H     0.62483   0.90192   0.06824   0.00000  Uiso   1.00
C513   C     0.62501   0.85866   0.04091   0.00000  Uiso   1.00
C514   C     0.62494   0.86664   0.02770   0.00000  Uiso   1.00
C515   C     0.62485   0.88182   0.02770   0.00000  Uiso   1.00
C516   C     0.62483   0.88980   0.04090   0.00000  Uiso   1.00
C517   C     0.62555   0.78941   0.11016   0.00000  Uiso   1.00
C518   C     0.62563   0.77607   0.11792   0.00000  Uiso   1.00
C519   C     0.62563   0.77605   0.13352   0.00000  Uiso   1.00
C520   C     0.62557   0.78938   0.14131   0.00000  Uiso   1.00
C521   C     0.62554   0.85870   0.21063   0.00000  Uiso   1.00
C522   C     0.62559   0.86649   0.22396   0.00000  Uiso   1.00
C523   C     0.62558   0.88209   0.22394   0.00000  Uiso   1.00
C524   C     0.62552   0.88985   0.21060   0.00000  Uiso   1.00
C525   C     0.62481   0.95911   0.11022   0.00000  Uiso   1.00
C526   C     0.62483   0.97232   0.11820   0.00000  Uiso   1.00
C527   C     0.62491   0.97232   0.13338   0.00000  Uiso   1.00
C528   C     0.62499   0.95911   0.14136   0.00000  Uiso   1.00
H169   H     0.62508   0.84669   0.04061   0.00000  Uiso   1.00
O81    O     0.62496   0.85991   0.01400   0.00000  Uiso   1.00
O82    O     0.62479   0.88854   0.01400   0.00000  Uiso   1.00
H170   H     0.62476   0.90177   0.04061   0.00000  Uiso   1.00
H171   H     0.62555   0.78924   0.09819   0.00000  Uiso   1.00
O83    O     0.62569   0.76266   0.11032   0.00000  Uiso   1.00
O84    O     0.62569   0.76262   0.14108   0.00000  Uiso   1.00
H172   H     0.62558   0.78918   0.15328   0.00000  Uiso   1.00
H173   H     0.62554   0.84673   0.21083   0.00000  Uiso   1.00
O85    O     0.62564   0.85893   0.23740   0.00000  Uiso   1.00
O86    O     0.62564   0.88968   0.23736   0.00000  Uiso   1.00
H174   H     0.62551   0.90182   0.21078   0.00000  Uiso   1.00
H175   H     0.62475   0.95941   0.09825   0.00000  Uiso   1.00
O87    O     0.62477   0.98602   0.11148   0.00000  Uiso   1.00
O88    O     0.62493   0.98602   0.14011   0.00000  Uiso   1.00
H176   H     0.62505   0.95940   0.15333   0.00000  Uiso   1.00
Ni11   Ni    0.62516   0.87424   0.12578   0.00000  Uiso   1.00
C529   C     0.14149   0.62543   0.18368   0.00000  Uiso   1.00
C530   C     0.13369   0.62548   0.19718   0.00000  Uiso   1.00
C531   C     0.11787   0.62547   0.19717   0.00000  Uiso   1.00
C532   C     0.11009   0.62539   0.18365   0.00000  Uiso   1.00
C533   C     0.11830   0.62534   0.17062   0.00000  Uiso   1.00
C534   C     0.13330   0.62536   0.17063   0.00000  Uiso   1.00
C535   C     0.13760   0.62530   0.15604   0.00000  Uiso   1.00
N89    N     0.12580   0.62524   0.14674   0.00000  Uiso   1.00
C536   C     0.11401   0.62527   0.15603   0.00000  Uiso   1.00
N90    N     0.09985   0.62521   0.15175   0.00000  Uiso   1.00
C537   C     0.09557   0.62513   0.13760   0.00000  Uiso   1.00
N91    N     0.10487   0.62509   0.12580   0.00000  Uiso   1.00
C538   C     0.09557   0.62500   0.11400   0.00000  Uiso   1.00
C539   C     0.08098   0.62497   0.11829   0.00000  Uiso   1.00
C540   C     0.08098   0.62506   0.13331   0.00000  Uiso   1.00
N92    N     0.12580   0.62509   0.10487   0.00000  Uiso   1.00
C541   C     0.11400   0.62500   0.09557   0.00000  Uiso   1.00
N93    N     0.09985   0.62495   0.09985   0.00000  Uiso   1.00
C542   C     0.11830   0.62497   0.08098   0.00000  Uiso   1.00
C543   C     0.13331   0.62506   0.08098   0.00000  Uiso   1.00
C544   C     0.13760   0.62513   0.09558   0.00000  Uiso   1.00
C545   C     0.06794   0.62507   0.14151   0.00000  Uiso   1.00
C546   C     0.05444   0.62499   0.13372   0.00000  Uiso   1.00
C547   C     0.05444   0.62490   0.11787   0.00000  Uiso   1.00
C548   C     0.06794   0.62490   0.11008   0.00000  Uiso   1.00
C549   C     0.14152   0.62507   0.06795   0.00000  Uiso   1.00
C550   C     0.13373   0.62499   0.05444   0.00000  Uiso   1.00
C551   C     0.11788   0.62490   0.05444   0.00000  Uiso   1.00
C552   C     0.11009   0.62490   0.06794   0.00000  Uiso   1.00
N94    N     0.14674   0.62524   0.12581   0.00000  Uiso   1.00
C553   C     0.15603   0.62526   0.11401   0.00000  Uiso   1.00
N95    N     0.15175   0.62521   0.09986   0.00000  Uiso   1.00
C554   C     0.17062   0.62534   0.11830   0.00000  Uiso   1.00
C555   C     0.17063   0.62536   0.13331   0.00000  Uiso   1.00
C556   C     0.15603   0.62530   0.13761   0.00000  Uiso   1.00
C557   C     0.18368   0.62543   0.14150   0.00000  Uiso   1.00
C558   C     0.19718   0.62548   0.13370   0.00000  Uiso   1.00
C559   C     0.19717   0.62547   0.11788   0.00000  Uiso   1.00
C560   C     0.18365   0.62539   0.11010   0.00000  Uiso   1.00
N96    N     0.15176   0.62533   0.15176   0.00000  Uiso   1.00
H177   H     0.15346   0.62544   0.18337   0.00000  Uiso   1.00
H178   H     0.09812   0.62538   0.18332   0.00000  Uiso   1.00
H179   H     0.06827   0.62514   0.15348   0.00000  Uiso   1.00
H180   H     0.06827   0.62483   0.09811   0.00000  Uiso   1.00
H181   H     0.15349   0.62513   0.06827   0.00000  Uiso   1.00
H182   H     0.09812   0.62483   0.06826   0.00000  Uiso   1.00
H183   H     0.18336   0.62544   0.15347   0.00000  Uiso   1.00
H184   H     0.18332   0.62537   0.09813   0.00000  Uiso   1.00
C561   C     0.21066   0.62555   0.14135   0.00000  Uiso   1.00
C562   C     0.22399   0.62561   0.13356   0.00000  Uiso   1.00
C563   C     0.22397   0.62560   0.11796   0.00000  Uiso   1.00
C564   C     0.21063   0.62553   0.11020   0.00000  Uiso   1.00
C565   C     0.14134   0.62555   0.21066   0.00000  Uiso   1.00
C566   C     0.13355   0.62561   0.22399   0.00000  Uiso   1.00
C567   C     0.11795   0.62560   0.22397   0.00000  Uiso   1.00
C568   C     0.11019   0.62553   0.21063   0.00000  Uiso   1.00
C569   C     0.04093   0.62500   0.14137   0.00000  Uiso   1.00
C570   C     0.02772   0.62493   0.13339   0.00000  Uiso   1.00
C571   C     0.02772   0.62485   0.11820   0.00000  Uiso   1.00
C572   C     0.04093   0.62483   0.11023   0.00000  Uiso   1.00
C573   C     0.14138   0.62500   0.04093   0.00000  Uiso   1.00
C574   C     0.13340   0.62493   0.02773   0.00000  Uiso   1.00
C575   C     0.11822   0.62485   0.02772   0.00000  Uiso   1.00
C576   C     0.11024   0.62483   0.04093   0.00000  Uiso   1.00
H185   H     0.21086   0.62556   0.15332   0.00000  Uiso   1.00
O89    O     0.23743   0.62566   0.14112   0.00000  Uiso   1.00
O90    O     0.23738   0.62565   0.11037   0.00000  Uiso   1.00
H186   H     0.21080   0.62552   0.09823   0.00000  Uiso   1.00
H187   H     0.15331   0.62556   0.21086   0.00000  Uiso   1.00
O91    O     0.14111   0.62566   0.23743   0.00000  Uiso   1.00
O92    O     0.11035   0.62565   0.23738   0.00000  Uiso   1.00
H188   H     0.09822   0.62552   0.21080   0.00000  Uiso   1.00
H189   H     0.04064   0.62507   0.15333   0.00000  Uiso   1.00
O93    O     0.01402   0.62494   0.14010   0.00000  Uiso   1.00
O94    O     0.01402   0.62478   0.11148   0.00000  Uiso   1.00
H190   H     0.04063   0.62476   0.09826   0.00000  Uiso   1.00
H191   H     0.15334   0.62507   0.04064   0.00000  Uiso   1.00
O95    O     0.14012   0.62494   0.01403   0.00000  Uiso   1.00
O96    O     0.11150   0.62479   0.01402   0.00000  Uiso   1.00
H192   H     0.09827   0.62477   0.04063   0.00000  Uiso   1.00
Ni12   Ni    0.12580   0.62517   0.12580   0.00000  Uiso   1.00
C577   C     0.37511   0.93206   0.88993   0.00000  Uiso   1.00
C578   C     0.37510   0.94556   0.88213   0.00000  Uiso   1.00
C579   C     0.37502   0.94556   0.86628   0.00000  Uiso   1.00
C580   C     0.37494   0.93206   0.85849   0.00000  Uiso   1.00
C581   C     0.37495   0.91902   0.86670   0.00000  Uiso   1.00
C582   C     0.37503   0.91902   0.88172   0.00000  Uiso   1.00
C583   C     0.37501   0.90443   0.88601   0.00000  Uiso   1.00
N97    N     0.37492   0.89514   0.87421   0.00000  Uiso   1.00
C584   C     0.37489   0.90443   0.86241   0.00000  Uiso   1.00
N98    N     0.37480   0.90015   0.84826   0.00000  Uiso   1.00
C585   C     0.37475   0.88600   0.84398   0.00000  Uiso   1.00
N99    N     0.37477   0.87420   0.85327   0.00000  Uiso   1.00
C586   C     0.37472   0.86240   0.84398   0.00000  Uiso   1.00
C587   C     0.37466   0.86670   0.82938   0.00000  Uiso   1.00
C588   C     0.37468   0.88171   0.82939   0.00000  Uiso   1.00
N100   N     0.37477   0.85326   0.87421   0.00000  Uiso   1.00
C589   C     0.37472   0.84397   0.86241   0.00000  Uiso   1.00
N101   N     0.37469   0.84824   0.84825   0.00000  Uiso   1.00
C590   C     0.37466   0.82937   0.86670   0.00000  Uiso   1.00
C591   C     0.37468   0.82938   0.88171   0.00000  Uiso   1.00
C592   C     0.37475   0.84397   0.88600   0.00000  Uiso   1.00
C593   C     0.37463   0.88991   0.81636   0.00000  Uiso   1.00
C594   C     0.37455   0.88213   0.80285   0.00000  Uiso   1.00
C595   C     0.37454   0.86631   0.80283   0.00000  Uiso   1.00
C596   C     0.37459   0.85851   0.81633   0.00000  Uiso   1.00
C597   C     0.37463   0.81635   0.88992   0.00000  Uiso   1.00
C598   C     0.37455   0.80284   0.88214   0.00000  Uiso   1.00
C599   C     0.37454   0.80282   0.86632   0.00000  Uiso   1.00
C600   C     0.37459   0.81633   0.85851   0.00000  Uiso   1.00
N102   N     0.37492   0.87420   0.89514   0.00000  Uiso   1.00
C601   C     0.37489   0.86240   0.90444   0.00000  Uiso   1.00
N103   N     0.37480   0.84825   0.90016   0.00000  Uiso   1.00
C602   C     0.37495   0.86670   0.91903   0.00000  Uiso   1.00
C603   C     0.37503   0.88171   0.91903   0.00000  Uiso   1.00
C604   C     0.37501   0.88600   0.90444   0.00000  Uiso   1.00
C605   C     0.37511   0.88992   0.93207   0.00000  Uiso   1.00
C606   C     0.37510   0.88213   0.94557   0.00000  Uiso   1.00
C607   C     0.37501   0.86628   0.94557   0.00000  Uiso   1.00
C608   C     0.37494   0.85849   0.93207   0.00000  Uiso   1.00
N104   N     0.37506   0.90015   0.90016   0.00000  Uiso   1.00
H193   H     0.37517   0.93174   0.90189   0.00000  Uiso   1.00
H194   H     0.37488   0.93173   0.84653   0.00000  Uiso   1.00
H195   H     0.37464   0.90188   0.81669   0.00000  Uiso   1.00
H196   H     0.37458   0.84654   0.81665   0.00000  Uiso   1.00
H197   H     0.37464   0.81668   0.90189   0.00000  Uiso   1.00
H198   H     0.37457   0.81664   0.84655   0.00000  Uiso   1.00
H199   H     0.37517   0.90189   0.93175   0.00000  Uiso   1.00
H200   H     0.37488   0.84652   0.93174   0.00000  Uiso   1.00
C609   C     0.37517   0.88977   0.95908   0.00000  Uiso   1.00
C610   C     0.37515   0.88179   0.97229   0.00000  Uiso   1.00
C611   C     0.37507   0.86661   0.97229   0.00000  Uiso   1.00
C612   C     0.37500   0.85863   0.95908   0.00000  Uiso   1.00
C613   C     0.37517   0.95907   0.88978   0.00000  Uiso   1.00
C614   C     0.37515   0.97228   0.88180   0.00000  Uiso   1.00
C615   C     0.37507   0.97228   0.86662   0.00000  Uiso   1.00
C616   C     0.37500   0.95907   0.85864   0.00000  Uiso   1.00
C617   C     0.37449   0.88981   0.78939   0.00000  Uiso   1.00
C618   C     0.37442   0.88205   0.77604   0.00000  Uiso   1.00
C619   C     0.37441   0.86645   0.77602   0.00000  Uiso   1.00
C620   C     0.37447   0.85866   0.78935   0.00000  Uiso   1.00
C621   C     0.37449   0.78938   0.88982   0.00000  Uiso   1.00
C622   C     0.37442   0.77604   0.88206   0.00000  Uiso   1.00
C623   C     0.37441   0.77602   0.86646   0.00000  Uiso   1.00
C624   C     0.37447   0.78934   0.85867   0.00000  Uiso   1.00
H201   H     0.37523   0.90174   0.95938   0.00000  Uiso   1.00
O97    O     0.37520   0.88851   0.98599   0.00000  Uiso   1.00
O98    O     0.37505   0.85989   0.98599   0.00000  Uiso   1.00
H202   H     0.37493   0.84666   0.95937   0.00000  Uiso   1.00
H203   H     0.37523   0.95937   0.90175   0.00000  Uiso   1.00
O99    O     0.37520   0.98598   0.88852   0.00000  Uiso   1.00
O100   O     0.37505   0.98598   0.85990   0.00000  Uiso   1.00
H204   H     0.37494   0.95936   0.84667   0.00000  Uiso   1.00
H205   H     0.37450   0.90178   0.78921   0.00000  Uiso   1.00
O101   O     0.37437   0.88964   0.76263   0.00000  Uiso   1.00
O102   O     0.37436   0.85889   0.76258   0.00000  Uiso   1.00
H206   H     0.37446   0.84669   0.78915   0.00000  Uiso   1.00
H207   H     0.37450   0.78921   0.90179   0.00000  Uiso   1.00
O103   O     0.37437   0.76262   0.88965   0.00000  Uiso   1.00
O104   O     0.37436   0.76258   0.85890   0.00000  Uiso   1.00
H208   H     0.37446   0.78914   0.84669   0.00000  Uiso   1.00
Ni13   Ni    0.37485   0.87420   0.87421   0.00000  Uiso   1.00
C625   C     0.11006   0.37462   0.81638   0.00000  Uiso   1.00
C626   C     0.11785   0.37455   0.80287   0.00000  Uiso   1.00
C627   C     0.13366   0.37453   0.80286   0.00000  Uiso   1.00
C628   C     0.14147   0.37458   0.81636   0.00000  Uiso   1.00
C629   C     0.13328   0.37466   0.82941   0.00000  Uiso   1.00
C630   C     0.11827   0.37467   0.82941   0.00000  Uiso   1.00
C631   C     0.11398   0.37474   0.84400   0.00000  Uiso   1.00
N105   N     0.12578   0.37476   0.85330   0.00000  Uiso   1.00
C632   C     0.13757   0.37471   0.84400   0.00000  Uiso   1.00
N106   N     0.15173   0.37468   0.84828   0.00000  Uiso   1.00
C633   C     0.15601   0.37470   0.86244   0.00000  Uiso   1.00
N107   N     0.14671   0.37476   0.87423   0.00000  Uiso   1.00
C634   C     0.15600   0.37473   0.88604   0.00000  Uiso   1.00
C635   C     0.17059   0.37466   0.88175   0.00000  Uiso   1.00
C636   C     0.17060   0.37464   0.86674   0.00000  Uiso   1.00
N108   N     0.12577   0.37492   0.89517   0.00000  Uiso   1.00
C637   C     0.13757   0.37488   0.90446   0.00000  Uiso   1.00
N109   N     0.15172   0.37479   0.90019   0.00000  Uiso   1.00
C638   C     0.13328   0.37495   0.91906   0.00000  Uiso   1.00
C639   C     0.11827   0.37504   0.91905   0.00000  Uiso   1.00
C640   C     0.11397   0.37501   0.90446   0.00000  Uiso   1.00
C641   C     0.18365   0.37457   0.85855   0.00000  Uiso   1.00
C642   C     0.19715   0.37451   0.86636   0.00000  Uiso   1.00
C643   C     0.19714   0.37452   0.88218   0.00000  Uiso   1.00
C644   C     0.18362   0.37460   0.88996   0.00000  Uiso   1.00
C645   C     0.11006   0.37511   0.93209   0.00000  Uiso   1.00
C646   C     0.11785   0.37510   0.94559   0.00000  Uiso   1.00
C647   C     0.13370   0.37501   0.94559   0.00000  Uiso   1.00
C648   C     0.14149   0.37493   0.93209   0.00000  Uiso   1.00
N110   N     0.10484   0.37492   0.87423   0.00000  Uiso   1.00
C649   C     0.09554   0.37502   0.88603   0.00000  Uiso   1.00
N111   N     0.09982   0.37506   0.90018   0.00000  Uiso   1.00
C650   C     0.08095   0.37504   0.88173   0.00000  Uiso   1.00
C651   C     0.08095   0.37496   0.86672   0.00000  Uiso   1.00
C652   C     0.09555   0.37488   0.86243   0.00000  Uiso   1.00
C653   C     0.06792   0.37495   0.85851   0.00000  Uiso   1.00
C654   C     0.05441   0.37502   0.86629   0.00000  Uiso   1.00
C655   C     0.05441   0.37511   0.88214   0.00000  Uiso   1.00
C656   C     0.06791   0.37512   0.88994   0.00000  Uiso   1.00
N112   N     0.09982   0.37480   0.84828   0.00000  Uiso   1.00
H209   H     0.09809   0.37464   0.81671   0.00000  Uiso   1.00
H210   H     0.15344   0.37457   0.81668   0.00000  Uiso   1.00
H211   H     0.18333   0.37456   0.84658   0.00000  Uiso   1.00
H212   H     0.18329   0.37461   0.90192   0.00000  Uiso   1.00
H213   H     0.09809   0.37518   0.93177   0.00000  Uiso   1.00
H214   H     0.15346   0.37486   0.93177   0.00000  Uiso   1.00
H215   H     0.06824   0.37488   0.84654   0.00000  Uiso   1.00
H216   H     0.06823   0.37518   0.90191   0.00000  Uiso   1.00
C657   C     0.04090   0.37501   0.85865   0.00000  Uiso   1.00
C658   C     0.02770   0.37508   0.86662   0.00000  Uiso   1.00
C659   C     0.02769   0.37517   0.88180   0.00000  Uiso   1.00
C660   C     0.04090   0.37519   0.88978   0.00000  Uiso   1.00
C661   C     0.11017   0.37449   0.78941   0.00000  Uiso   1.00
C662   C     0.11793   0.37442   0.77607   0.00000  Uiso   1.00
C663   C     0.13353   0.37441   0.77605   0.00000  Uiso   1.00
C664   C     0.14132   0.37446   0.78938   0.00000  Uiso   1.00
C665   C     0.21063   0.37444   0.85871   0.00000  Uiso   1.00
C666   C     0.22396   0.37438   0.86650   0.00000  Uiso   1.00
C667   C     0.22394   0.37438   0.88210   0.00000  Uiso   1.00
C668   C     0.21060   0.37445   0.88986   0.00000  Uiso   1.00
C669   C     0.11021   0.37518   0.95910   0.00000  Uiso   1.00
C670   C     0.11818   0.37515   0.97231   0.00000  Uiso   1.00
C671   C     0.13337   0.37507   0.97231   0.00000  Uiso   1.00
C672   C     0.14134   0.37499   0.95911   0.00000  Uiso   1.00
H217   H     0.04061   0.37494   0.84668   0.00000  Uiso   1.00
O105   O     0.01399   0.37507   0.85990   0.00000  Uiso   1.00
O106   O     0.01399   0.37523   0.88852   0.00000  Uiso   1.00
H218   H     0.04060   0.37526   0.90175   0.00000  Uiso   1.00
H219   H     0.09819   0.37449   0.78923   0.00000  Uiso   1.00
O107   O     0.11034   0.37436   0.76265   0.00000  Uiso   1.00
O108   O     0.14109   0.37436   0.76261   0.00000  Uiso   1.00
H220   H     0.15329   0.37446   0.78919   0.00000  Uiso   1.00
H221   H     0.21083   0.37443   0.84674   0.00000  Uiso   1.00
O109   O     0.23740   0.37432   0.85894   0.00000  Uiso   1.00
O110   O     0.23736   0.37432   0.88970   0.00000  Uiso   1.00
H222   H     0.21077   0.37446   0.90183   0.00000  Uiso   1.00
H223   H     0.09824   0.37524   0.95940   0.00000  Uiso   1.00
O111   O     0.11147   0.37522   0.98601   0.00000  Uiso   1.00
O112   O     0.14009   0.37505   0.98601   0.00000  Uiso   1.00
H224   H     0.15331   0.37492   0.95940   0.00000  Uiso   1.00
Ni14   Ni    0.12577   0.37484   0.87423   0.00000  Uiso   1.00
C673   C     0.62509   0.06792   0.85852   0.00000  Uiso   1.00
C674   C     0.62502   0.05442   0.86631   0.00000  Uiso   1.00
C675   C     0.62492   0.05442   0.88216   0.00000  Uiso   1.00
C676   C     0.62491   0.06792   0.88995   0.00000  Uiso   1.00
C677   C     0.62499   0.08096   0.88175   0.00000  Uiso   1.00
C678   C     0.62508   0.08096   0.86673   0.00000  Uiso   1.00
C679   C     0.62515   0.09555   0.86244   0.00000  Uiso   1.00
N113   N     0.62511   0.10484   0.87424   0.00000  Uiso   1.00
C680   C     0.62502   0.09555   0.88604   0.00000  Uiso   1.00
N114   N     0.62497   0.09983   0.90019   0.00000  Uiso   1.00
C681   C     0.62501   0.11398   0.90447   0.00000  Uiso   1.00
N115   N     0.62511   0.12578   0.89518   0.00000  Uiso   1.00
C682   C     0.62514   0.13758   0.90447   0.00000  Uiso   1.00
C683   C     0.62507   0.13329   0.91906   0.00000  Uiso   1.00
C684   C     0.62499   0.11828   0.91906   0.00000  Uiso   1.00
N116   N     0.62526   0.14672   0.87424   0.00000  Uiso   1.00
C685   C     0.62528   0.15601   0.88604   0.00000  Uiso   1.00
N117   N     0.62523   0.15173   0.90019   0.00000  Uiso   1.00
C686   C     0.62535   0.17060   0.88175   0.00000  Uiso   1.00
C687   C     0.62537   0.17060   0.86674   0.00000  Uiso   1.00
C688   C     0.62532   0.15601   0.86244   0.00000  Uiso   1.00
C689   C     0.62490   0.11007   0.93210   0.00000  Uiso   1.00
C690   C     0.62491   0.11786   0.94560   0.00000  Uiso   1.00
C691   C     0.62500   0.13371   0.94560   0.00000  Uiso   1.00
C692   C     0.62508   0.14150   0.93210   0.00000  Uiso   1.00
C693   C     0.62544   0.18365   0.85855   0.00000  Uiso   1.00
C694   C     0.62549   0.19716   0.86636   0.00000  Uiso   1.00
C695   C     0.62548   0.19714   0.88217   0.00000  Uiso   1.00
C696   C     0.62540   0.18363   0.88996   0.00000  Uiso   1.00
N118   N     0.62527   0.12578   0.85330   0.00000  Uiso   1.00
C697   C     0.62532   0.13758   0.84401   0.00000  Uiso   1.00
N119   N     0.62534   0.15173   0.84829   0.00000  Uiso   1.00
C698   C     0.62538   0.13328   0.82942   0.00000  Uiso   1.00
C699   C     0.62536   0.11827   0.82942   0.00000  Uiso   1.00
C700   C     0.62529   0.11398   0.84401   0.00000  Uiso   1.00
C701   C     0.62542   0.11006   0.81639   0.00000  Uiso   1.00
C702   C     0.62550   0.11785   0.80288   0.00000  Uiso   1.00
C703   C     0.62551   0.13366   0.80286   0.00000  Uiso   1.00
C704   C     0.62546   0.14147   0.81637   0.00000  Uiso   1.00
N120   N     0.62524   0.09983   0.84829   0.00000  Uiso   1.00
H225   H     0.62517   0.06825   0.84655   0.00000  Uiso   1.00
H226   H     0.62485   0.06824   0.90192   0.00000  Uiso   1.00
H227   H     0.62484   0.09810   0.93178   0.00000  Uiso   1.00
H228   H     0.62515   0.15347   0.93177   0.00000  Uiso   1.00
H229   H     0.62545   0.18333   0.84658   0.00000  Uiso   1.00
H230   H     0.62539   0.18330   0.90192   0.00000  Uiso   1.00
H231   H     0.62541   0.09809   0.81672   0.00000  Uiso   1.00
H232   H     0.62547   0.15344   0.81668   0.00000  Uiso   1.00
C705   C     0.62557   0.11016   0.78942   0.00000  Uiso   1.00
C706   C     0.62564   0.11792   0.77608   0.00000  Uiso   1.00
C707   C     0.62564   0.13353   0.77606   0.00000  Uiso   1.00
C708   C     0.62559   0.14132   0.78939   0.00000  Uiso   1.00
C709   C     0.62503   0.04091   0.85866   0.00000  Uiso   1.00
C710   C     0.62496   0.02770   0.86664   0.00000  Uiso   1.00
C711   C     0.62487   0.02770   0.88182   0.00000  Uiso   1.00
C712   C     0.62485   0.04091   0.88980   0.00000  Uiso   1.00
C713   C     0.62483   0.11022   0.95911   0.00000  Uiso   1.00
C714   C     0.62485   0.11820   0.97232   0.00000  Uiso   1.00
C715   C     0.62493   0.13339   0.97232   0.00000  Uiso   1.00
C716   C     0.62501   0.14136   0.95911   0.00000  Uiso   1.00
C717   C     0.62556   0.21063   0.85870   0.00000  Uiso   1.00
C718   C     0.62561   0.22396   0.86649   0.00000  Uiso   1.00
C719   C     0.62561   0.22395   0.88209   0.00000  Uiso   1.00
C720   C     0.62554   0.21061   0.88985   0.00000  Uiso   1.00
H233   H     0.62556   0.09819   0.78924   0.00000  Uiso   1.00
O113   O     0.62570   0.11033   0.76266   0.00000  Uiso   1.00
O114   O     0.62570   0.14108   0.76262   0.00000  Uiso   1.00
H234   H     0.62559   0.15329   0.78919   0.00000  Uiso   1.00
H235   H     0.62510   0.04062   0.84670   0.00000  Uiso   1.00
O115   O     0.62498   0.01400   0.85992   0.00000  Uiso   1.00
O116   O     0.62481   0.01400   0.88854   0.00000  Uiso   1.00
H236   H     0.62478   0.04061   0.90177   0.00000  Uiso   1.00
H237   H     0.62477   0.09825   0.95941   0.00000  Uiso   1.00
O117   O     0.62479   0.11148   0.98602   0.00000  Uiso   1.00
O118   O     0.62494   0.14011   0.98602   0.00000  Uiso   1.00
H238   H     0.62507   0.15333   0.95941   0.00000  Uiso   1.00
H239   H     0.62557   0.21083   0.84673   0.00000  Uiso   1.00
O119   O     0.62566   0.23740   0.85893   0.00000  Uiso   1.00
O120   O     0.62566   0.23736   0.88969   0.00000  Uiso   1.00
H240   H     0.62553   0.21078   0.90183   0.00000  Uiso   1.00
Ni15   Ni    0.62518   0.12578   0.87424   0.00000  Uiso   1.00
C721   C     0.85855   0.62544   0.81633   0.00000  Uiso   1.00
C722   C     0.86635   0.62550   0.80282   0.00000  Uiso   1.00
C723   C     0.88217   0.62548   0.80284   0.00000  Uiso   1.00
C724   C     0.88995   0.62541   0.81635   0.00000  Uiso   1.00
C725   C     0.88175   0.62535   0.82938   0.00000  Uiso   1.00
C726   C     0.86674   0.62537   0.82937   0.00000  Uiso   1.00
C727   C     0.86244   0.62531   0.84397   0.00000  Uiso   1.00
N121   N     0.87424   0.62525   0.85326   0.00000  Uiso   1.00
C728   C     0.88604   0.62528   0.84397   0.00000  Uiso   1.00
N122   N     0.90019   0.62522   0.84825   0.00000  Uiso   1.00
C729   C     0.90447   0.62513   0.86241   0.00000  Uiso   1.00
N123   N     0.89518   0.62510   0.87420   0.00000  Uiso   1.00
C730   C     0.90447   0.62500   0.88600   0.00000  Uiso   1.00
C731   C     0.91906   0.62498   0.88171   0.00000  Uiso   1.00
C732   C     0.91906   0.62506   0.86670   0.00000  Uiso   1.00
N124   N     0.87424   0.62510   0.89514   0.00000  Uiso   1.00
C733   C     0.88604   0.62500   0.90443   0.00000  Uiso   1.00
N125   N     0.90019   0.62495   0.90015   0.00000  Uiso   1.00
C734   C     0.88175   0.62498   0.91902   0.00000  Uiso   1.00
C735   C     0.86673   0.62506   0.91902   0.00000  Uiso   1.00
C736   C     0.86244   0.62513   0.90443   0.00000  Uiso   1.00
C737   C     0.93210   0.62507   0.85849   0.00000  Uiso   1.00
C738   C     0.94560   0.62499   0.86628   0.00000  Uiso   1.00
C739   C     0.94560   0.62490   0.88213   0.00000  Uiso   1.00
C740   C     0.93210   0.62489   0.88992   0.00000  Uiso   1.00
C741   C     0.85852   0.62507   0.93206   0.00000  Uiso   1.00
C742   C     0.86631   0.62499   0.94556   0.00000  Uiso   1.00
C743   C     0.88216   0.62490   0.94556   0.00000  Uiso   1.00
C744   C     0.88995   0.62489   0.93206   0.00000  Uiso   1.00
N126   N     0.85330   0.62525   0.87420   0.00000  Uiso   1.00
C745   C     0.84401   0.62528   0.88599   0.00000  Uiso   1.00
N127   N     0.84829   0.62522   0.90015   0.00000  Uiso   1.00
C746   C     0.82942   0.62535   0.88170   0.00000  Uiso   1.00
C747   C     0.82941   0.62537   0.86669   0.00000  Uiso   1.00
C748   C     0.84401   0.62531   0.86240   0.00000  Uiso   1.00
C749   C     0.81637   0.62544   0.85850   0.00000  Uiso   1.00
C750   C     0.80286   0.62549   0.86631   0.00000  Uiso   1.00
C751   C     0.80288   0.62548   0.88212   0.00000  Uiso   1.00
C752   C     0.81639   0.62540   0.88991   0.00000  Uiso   1.00
N128   N     0.84828   0.62534   0.84824   0.00000  Uiso   1.00
H241   H     0.84658   0.62545   0.81664   0.00000  Uiso   1.00
H242   H     0.90192   0.62539   0.81668   0.00000  Uiso   1.00
H243   H     0.93177   0.62515   0.84652   0.00000  Uiso   1.00
H244   H     0.93178   0.62483   0.90189   0.00000  Uiso   1.00
H245   H     0.84656   0.62515   0.93173   0.00000  Uiso   1.00
H246   H     0.90192   0.62483   0.93174   0.00000  Uiso   1.00
H247   H     0.81668   0.62545   0.84653   0.00000  Uiso   1.00
H248   H     0.81672   0.62539   0.90188   0.00000  Uiso   1.00
C753   C     0.78938   0.62556   0.85865   0.00000  Uiso   1.00
C754   C     0.77606   0.62562   0.86644   0.00000  Uiso   1.00
C755   C     0.77607   0.62561   0.88204   0.00000  Uiso   1.00
C756   C     0.78941   0.62554   0.88980   0.00000  Uiso   1.00
C757   C     0.85870   0.62557   0.78934   0.00000  Uiso   1.00
C758   C     0.86649   0.62562   0.77602   0.00000  Uiso   1.00
C759   C     0.88209   0.62562   0.77604   0.00000  Uiso   1.00
C760   C     0.88985   0.62555   0.78938   0.00000  Uiso   1.00
C761   C     0.95911   0.62501   0.85864   0.00000  Uiso   1.00
C762   C     0.97232   0.62493   0.86662   0.00000  Uiso   1.00
C763   C     0.97232   0.62484   0.88180   0.00000  Uiso   1.00
C764   C     0.95911   0.62482   0.88978   0.00000  Uiso   1.00
C765   C     0.85867   0.62501   0.95907   0.00000  Uiso   1.00
C766   C     0.86664   0.62493   0.97228   0.00000  Uiso   1.00
C767   C     0.88183   0.62485   0.97228   0.00000  Uiso   1.00
C768   C     0.88981   0.62483   0.95907   0.00000  Uiso   1.00
H249   H     0.78919   0.62557   0.84668   0.00000  Uiso   1.00
O121   O     0.76262   0.62567   0.85888   0.00000  Uiso   1.00
O122   O     0.76266   0.62567   0.88963   0.00000  Uiso   1.00
H250   H     0.78924   0.62553   0.90177   0.00000  Uiso   1.00
H251   H     0.84673   0.62557   0.78915   0.00000  Uiso   1.00
O123   O     0.85893   0.62568   0.76258   0.00000  Uiso   1.00
O124   O     0.88968   0.62567   0.76262   0.00000  Uiso   1.00
H252   H     0.90182   0.62554   0.78920   0.00000  Uiso   1.00
H253   H     0.95941   0.62508   0.84667   0.00000  Uiso   1.00
O125   O     0.98602   0.62494   0.85990   0.00000  Uiso   1.00
O126   O     0.98602   0.62478   0.88853   0.00000  Uiso   1.00
H254   H     0.95941   0.62475   0.90175   0.00000  Uiso   1.00
H255   H     0.84670   0.62508   0.95936   0.00000  Uiso   1.00
O127   O     0.85993   0.62495   0.98598   0.00000  Uiso   1.00
O128   O     0.88855   0.62478   0.98598   0.00000  Uiso   1.00
H256   H     0.90177   0.62476   0.95937   0.00000  Uiso   1.00
Ni16   Ni    0.87424   0.62517   0.87420   0.00000  Uiso   1.00
C769   C     0.14147   0.37456   0.18367   0.00000  Uiso   1.00
C770   C     0.13366   0.37451   0.19717   0.00000  Uiso   1.00
C771   C     0.11784   0.37452   0.19715   0.00000  Uiso   1.00
C772   C     0.11006   0.37460   0.18364   0.00000  Uiso   1.00
C773   C     0.11827   0.37465   0.17061   0.00000  Uiso   1.00
C774   C     0.13328   0.37464   0.17062   0.00000  Uiso   1.00
C775   C     0.13757   0.37469   0.15602   0.00000  Uiso   1.00
N129   N     0.12578   0.37475   0.14673   0.00000  Uiso   1.00
C776   C     0.11398   0.37472   0.15602   0.00000  Uiso   1.00
N130   N     0.09982   0.37478   0.15174   0.00000  Uiso   1.00
C777   C     0.09555   0.37487   0.13758   0.00000  Uiso   1.00
N131   N     0.10484   0.37490   0.12579   0.00000  Uiso   1.00
C778   C     0.09554   0.37500   0.11399   0.00000  Uiso   1.00
C779   C     0.08095   0.37503   0.11828   0.00000  Uiso   1.00
C780   C     0.08095   0.37494   0.13329   0.00000  Uiso   1.00
N132   N     0.12577   0.37491   0.10485   0.00000  Uiso   1.00
C781   C     0.11398   0.37500   0.09556   0.00000  Uiso   1.00
N133   N     0.09982   0.37505   0.09984   0.00000  Uiso   1.00
C782   C     0.11827   0.37503   0.08097   0.00000  Uiso   1.00
C783   C     0.13328   0.37494   0.08097   0.00000  Uiso   1.00
C784   C     0.13757   0.37487   0.09556   0.00000  Uiso   1.00
C785   C     0.06792   0.37492   0.14150   0.00000  Uiso   1.00
C786   C     0.05441   0.37500   0.13371   0.00000  Uiso   1.00
C787   C     0.05441   0.37510   0.11786   0.00000  Uiso   1.00
C788   C     0.06791   0.37511   0.11007   0.00000  Uiso   1.00
C789   C     0.14149   0.37493   0.06793   0.00000  Uiso   1.00
C790   C     0.13370   0.37501   0.05443   0.00000  Uiso   1.00
C791   C     0.11785   0.37510   0.05443   0.00000  Uiso   1.00
C792   C     0.11006   0.37511   0.06793   0.00000  Uiso   1.00
N134   N     0.14671   0.37475   0.12580   0.00000  Uiso   1.00
C793   C     0.15600   0.37473   0.11400   0.00000  Uiso   1.00
N135   N     0.15172   0.37478   0.09984   0.00000  Uiso   1.00
C794   C     0.17059   0.37466   0.11829   0.00000  Uiso   1.00
C795   C     0.17060   0.37464   0.13330   0.00000  Uiso   1.00
C796   C     0.15601   0.37469   0.13759   0.00000  Uiso   1.00
C797   C     0.18365   0.37457   0.14149   0.00000  Uiso   1.00
C798   C     0.19715   0.37451   0.13369   0.00000  Uiso   1.00
C799   C     0.19714   0.37452   0.11787   0.00000  Uiso   1.00
C800   C     0.18363   0.37460   0.11008   0.00000  Uiso   1.00
N136   N     0.15173   0.37467   0.15175   0.00000  Uiso   1.00
H257   H     0.15343   0.37455   0.18335   0.00000  Uiso   1.00
H258   H     0.09809   0.37461   0.18331   0.00000  Uiso   1.00
H259   H     0.06824   0.37485   0.15347   0.00000  Uiso   1.00
H260   H     0.06824   0.37517   0.09810   0.00000  Uiso   1.00
H261   H     0.15346   0.37485   0.06826   0.00000  Uiso   1.00
H262   H     0.09809   0.37517   0.06825   0.00000  Uiso   1.00
H263   H     0.18333   0.37455   0.15346   0.00000  Uiso   1.00
H264   H     0.18329   0.37461   0.09812   0.00000  Uiso   1.00
C801   C     0.21063   0.37444   0.14134   0.00000  Uiso   1.00
C802   C     0.22396   0.37439   0.13355   0.00000  Uiso   1.00
C803   C     0.22394   0.37439   0.11795   0.00000  Uiso   1.00
C804   C     0.21060   0.37446   0.11019   0.00000  Uiso   1.00
C805   C     0.14132   0.37444   0.21065   0.00000  Uiso   1.00
C806   C     0.13353   0.37438   0.22397   0.00000  Uiso   1.00
C807   C     0.11792   0.37439   0.22395   0.00000  Uiso   1.00
C808   C     0.11016   0.37446   0.21061   0.00000  Uiso   1.00
C809   C     0.04090   0.37499   0.14135   0.00000  Uiso   1.00
C810   C     0.02770   0.37506   0.13337   0.00000  Uiso   1.00
C811   C     0.02770   0.37515   0.11819   0.00000  Uiso   1.00
C812   C     0.04090   0.37517   0.11021   0.00000  Uiso   1.00
C813   C     0.14135   0.37499   0.04092   0.00000  Uiso   1.00
C814   C     0.13337   0.37506   0.02771   0.00000  Uiso   1.00
C815   C     0.11819   0.37515   0.02771   0.00000  Uiso   1.00
C816   C     0.11021   0.37517   0.04092   0.00000  Uiso   1.00
H265   H     0.21083   0.37444   0.15331   0.00000  Uiso   1.00
O129   O     0.23740   0.37433   0.14111   0.00000  Uiso   1.00
O130   O     0.23736   0.37434   0.11036   0.00000  Uiso   1.00
H266   H     0.21077   0.37447   0.09822   0.00000  Uiso   1.00
H267   H     0.15329   0.37443   0.21085   0.00000  Uiso   1.00
O131   O     0.14108   0.37433   0.23741   0.00000  Uiso   1.00
O132   O     0.11033   0.37433   0.23737   0.00000  Uiso   1.00
H268   H     0.09819   0.37446   0.21078   0.00000  Uiso   1.00
H269   H     0.04061   0.37492   0.15332   0.00000  Uiso   1.00
O133   O     0.01399   0.37504   0.14009   0.00000  Uiso   1.00
O134   O     0.01399   0.37521   0.11147   0.00000  Uiso   1.00
H270   H     0.04061   0.37524   0.09825   0.00000  Uiso   1.00
H271   H     0.15331   0.37492   0.04063   0.00000  Uiso   1.00
O135   O     0.14009   0.37505   0.01401   0.00000  Uiso   1.00
O136   O     0.11147   0.37521   0.01401   0.00000  Uiso   1.00
H272   H     0.09824   0.37524   0.04062   0.00000  Uiso   1.00
Ni17   Ni    0.12577   0.37483   0.12579   0.00000  Uiso   1.00
C817   C     0.14151   0.62506   0.93211   0.00000  Uiso   1.00
C818   C     0.13373   0.62498   0.94561   0.00000  Uiso   1.00
C819   C     0.11788   0.62489   0.94561   0.00000  Uiso   1.00
C820   C     0.11008   0.62488   0.93211   0.00000  Uiso   1.00
C821   C     0.11829   0.62496   0.91907   0.00000  Uiso   1.00
C822   C     0.13330   0.62505   0.91907   0.00000  Uiso   1.00
C823   C     0.13759   0.62512   0.90448   0.00000  Uiso   1.00
N137   N     0.12580   0.62508   0.89518   0.00000  Uiso   1.00
C824   C     0.11400   0.62499   0.90447   0.00000  Uiso   1.00
N138   N     0.09984   0.62494   0.90020   0.00000  Uiso   1.00
C825   C     0.09557   0.62499   0.88604   0.00000  Uiso   1.00
N139   N     0.10486   0.62508   0.87425   0.00000  Uiso   1.00
C826   C     0.09557   0.62512   0.86245   0.00000  Uiso   1.00
C827   C     0.08098   0.62505   0.86673   0.00000  Uiso   1.00
C828   C     0.08097   0.62496   0.88175   0.00000  Uiso   1.00
N140   N     0.12580   0.62524   0.85331   0.00000  Uiso   1.00
C829   C     0.11400   0.62526   0.84402   0.00000  Uiso   1.00
N141   N     0.09985   0.62521   0.84829   0.00000  Uiso   1.00
C830   C     0.11829   0.62534   0.82943   0.00000  Uiso   1.00
C831   C     0.13330   0.62535   0.82942   0.00000  Uiso   1.00
C832   C     0.13760   0.62529   0.84402   0.00000  Uiso   1.00
C833   C     0.06794   0.62488   0.88995   0.00000  Uiso   1.00
C834   C     0.05443   0.62489   0.88216   0.00000  Uiso   1.00
C835   C     0.05444   0.62498   0.86631   0.00000  Uiso   1.00
C836   C     0.06794   0.62506   0.85852   0.00000  Uiso   1.00
C837   C     0.14149   0.62543   0.81638   0.00000  Uiso   1.00
C838   C     0.13368   0.62549   0.80287   0.00000  Uiso   1.00
C839   C     0.11786   0.62548   0.80288   0.00000  Uiso   1.00
C840   C     0.11008   0.62540   0.81639   0.00000  Uiso   1.00
N142   N     0.14673   0.62523   0.87425   0.00000  Uiso   1.00
C841   C     0.15603   0.62529   0.86245   0.00000  Uiso   1.00
N143   N     0.15175   0.62532   0.84830   0.00000  Uiso   1.00
C842   C     0.17062   0.62534   0.86675   0.00000  Uiso   1.00
C843   C     0.17061   0.62532   0.88176   0.00000  Uiso   1.00
C844   C     0.15602   0.62525   0.88605   0.00000  Uiso   1.00
C845   C     0.18365   0.62538   0.88997   0.00000  Uiso   1.00
C846   C     0.19716   0.62545   0.88218   0.00000  Uiso   1.00
C847   C     0.19717   0.62547   0.86637   0.00000  Uiso   1.00
C848   C     0.18367   0.62541   0.85856   0.00000  Uiso   1.00
N144   N     0.15175   0.62520   0.90020   0.00000  Uiso   1.00
H273   H     0.15348   0.62513   0.93178   0.00000  Uiso   1.00
H274   H     0.09812   0.62482   0.93178   0.00000  Uiso   1.00
H275   H     0.06826   0.62482   0.90192   0.00000  Uiso   1.00
H276   H     0.06826   0.62514   0.84655   0.00000  Uiso   1.00
H277   H     0.15346   0.62544   0.81669   0.00000  Uiso   1.00
H278   H     0.09811   0.62538   0.81673   0.00000  Uiso   1.00
H279   H     0.18332   0.62536   0.90193   0.00000  Uiso   1.00
H280   H     0.18335   0.62543   0.84659   0.00000  Uiso   1.00
C849   C     0.21062   0.62551   0.88987   0.00000  Uiso   1.00
C850   C     0.22396   0.62558   0.88211   0.00000  Uiso   1.00
C851   C     0.22398   0.62559   0.86650   0.00000  Uiso   1.00
C852   C     0.21065   0.62553   0.85871   0.00000  Uiso   1.00
C853   C     0.14137   0.62500   0.95912   0.00000  Uiso   1.00
C854   C     0.13340   0.62493   0.97233   0.00000  Uiso   1.00
C855   C     0.11821   0.62484   0.97232   0.00000  Uiso   1.00
C856   C     0.11023   0.62482   0.95912   0.00000  Uiso   1.00
C857   C     0.04092   0.62482   0.88980   0.00000  Uiso   1.00
C858   C     0.02772   0.62484   0.88182   0.00000  Uiso   1.00
C859   C     0.02772   0.62493   0.86663   0.00000  Uiso   1.00
C860   C     0.04093   0.62500   0.85866   0.00000  Uiso   1.00
C861   C     0.14134   0.62556   0.78939   0.00000  Uiso   1.00
C862   C     0.13355   0.62562   0.77606   0.00000  Uiso   1.00
C863   C     0.11794   0.62562   0.77608   0.00000  Uiso   1.00
C864   C     0.11018   0.62554   0.78942   0.00000  Uiso   1.00
H281   H     0.21079   0.62551   0.90184   0.00000  Uiso   1.00
O137   O     0.23738   0.62563   0.88970   0.00000  Uiso   1.00
O138   O     0.23742   0.62564   0.85895   0.00000  Uiso   1.00
H282   H     0.21085   0.62554   0.84674   0.00000  Uiso   1.00
H283   H     0.15334   0.62506   0.95941   0.00000  Uiso   1.00
O139   O     0.14012   0.62494   0.98603   0.00000  Uiso   1.00
O140   O     0.11149   0.62478   0.98603   0.00000  Uiso   1.00
H284   H     0.09827   0.62476   0.95941   0.00000  Uiso   1.00
H285   H     0.04062   0.62475   0.90177   0.00000  Uiso   1.00
O141   O     0.01401   0.62478   0.88853   0.00000  Uiso   1.00
O142   O     0.01402   0.62494   0.85991   0.00000  Uiso   1.00
H286   H     0.04063   0.62507   0.84669   0.00000  Uiso   1.00
H287   H     0.15331   0.62557   0.78920   0.00000  Uiso   1.00
O143   O     0.14110   0.62568   0.76263   0.00000  Uiso   1.00
O144   O     0.11035   0.62568   0.76266   0.00000  Uiso   1.00
H288   H     0.09821   0.62554   0.78925   0.00000  Uiso   1.00
Ni18   Ni    0.12580   0.62516   0.87425   0.00000  Uiso   1.00
C865   C     0.37493   0.06790   0.85851   0.00000  Uiso   1.00
C866   C     0.37501   0.05440   0.86629   0.00000  Uiso   1.00
C867   C     0.37509   0.05440   0.88214   0.00000  Uiso   1.00
C868   C     0.37510   0.06790   0.88994   0.00000  Uiso   1.00
C869   C     0.37503   0.08094   0.88173   0.00000  Uiso   1.00
C870   C     0.37494   0.08094   0.86672   0.00000  Uiso   1.00
C871   C     0.37488   0.09553   0.86243   0.00000  Uiso   1.00
N145   N     0.37491   0.10482   0.87423   0.00000  Uiso   1.00
C872   C     0.37500   0.09553   0.88603   0.00000  Uiso   1.00
N146   N     0.37505   0.09981   0.90018   0.00000  Uiso   1.00
C873   C     0.37500   0.11396   0.90446   0.00000  Uiso   1.00
N147   N     0.37491   0.12576   0.89516   0.00000  Uiso   1.00
C874   C     0.37487   0.13756   0.90446   0.00000  Uiso   1.00
C875   C     0.37493   0.13326   0.91905   0.00000  Uiso   1.00
C876   C     0.37502   0.11825   0.91905   0.00000  Uiso   1.00
N148   N     0.37476   0.14669   0.87423   0.00000  Uiso   1.00
C877   C     0.37473   0.15598   0.88603   0.00000  Uiso   1.00
N149   N     0.37478   0.15171   0.90018   0.00000  Uiso   1.00
C878   C     0.37466   0.17058   0.88174   0.00000  Uiso   1.00
C879   C     0.37465   0.17058   0.86673   0.00000  Uiso   1.00
C880   C     0.37470   0.15599   0.86243   0.00000  Uiso   1.00
C881   C     0.37509   0.11004   0.93209   0.00000  Uiso   1.00
C882   C     0.37508   0.11784   0.94559   0.00000  Uiso   1.00
C883   C     0.37499   0.13369   0.94559   0.00000  Uiso   1.00
C884   C     0.37492   0.14148   0.93209   0.00000  Uiso   1.00
C885   C     0.37457   0.18363   0.85854   0.00000  Uiso   1.00
C886   C     0.37451   0.19713   0.86635   0.00000  Uiso   1.00
C887   C     0.37452   0.19712   0.88217   0.00000  Uiso   1.00
C888   C     0.37460   0.18361   0.88995   0.00000  Uiso   1.00
N150   N     0.37476   0.12576   0.85329   0.00000  Uiso   1.00
C889   C     0.37471   0.13756   0.84400   0.00000  Uiso   1.00
N151   N     0.37468   0.15171   0.84828   0.00000  Uiso   1.00
C890   C     0.37466   0.13326   0.82940   0.00000  Uiso   1.00
C891   C     0.37467   0.11825   0.82941   0.00000  Uiso   1.00
C892   C     0.37474   0.11396   0.84400   0.00000  Uiso   1.00
C893   C     0.37462   0.11004   0.81637   0.00000  Uiso   1.00
C894   C     0.37455   0.11783   0.80286   0.00000  Uiso   1.00
C895   C     0.37453   0.13365   0.80285   0.00000  Uiso   1.00
C896   C     0.37459   0.14145   0.81636   0.00000  Uiso   1.00
N152   N     0.37479   0.09981   0.84828   0.00000  Uiso   1.00
H289   H     0.37487   0.06822   0.84654   0.00000  Uiso   1.00
H290   H     0.37516   0.06822   0.90191   0.00000  Uiso   1.00
H291   H     0.37516   0.09808   0.93177   0.00000  Uiso   1.00
H292   H     0.37485   0.15344   0.93176   0.00000  Uiso   1.00
H293   H     0.37456   0.18332   0.84657   0.00000  Uiso   1.00
H294   H     0.37461   0.18328   0.90192   0.00000  Uiso   1.00
H295   H     0.37463   0.09808   0.81671   0.00000  Uiso   1.00
H296   H     0.37457   0.15342   0.81668   0.00000  Uiso   1.00
C897   C     0.37449   0.11015   0.78940   0.00000  Uiso   1.00
C898   C     0.37442   0.11791   0.77606   0.00000  Uiso   1.00
C899   C     0.37442   0.13351   0.77605   0.00000  Uiso   1.00
C900   C     0.37447   0.14130   0.78938   0.00000  Uiso   1.00
C901   C     0.37499   0.04089   0.85865   0.00000  Uiso   1.00
C902   C     0.37506   0.02768   0.86662   0.00000  Uiso   1.00
C903   C     0.37515   0.02768   0.88181   0.00000  Uiso   1.00
C904   C     0.37517   0.04088   0.88979   0.00000  Uiso   1.00
C905   C     0.37515   0.11020   0.95910   0.00000  Uiso   1.00
C906   C     0.37513   0.11818   0.97231   0.00000  Uiso   1.00
C907   C     0.37504   0.13336   0.97231   0.00000  Uiso   1.00
C908   C     0.37497   0.14133   0.95910   0.00000  Uiso   1.00
C909   C     0.37444   0.21061   0.85870   0.00000  Uiso   1.00
C910   C     0.37438   0.22394   0.86649   0.00000  Uiso   1.00
C911   C     0.37439   0.22392   0.88209   0.00000  Uiso   1.00
C912   C     0.37446   0.21058   0.88985   0.00000  Uiso   1.00
H297   H     0.37449   0.09818   0.78923   0.00000  Uiso   1.00
O145   O     0.37437   0.11032   0.76264   0.00000  Uiso   1.00
O146   O     0.37437   0.14107   0.76261   0.00000  Uiso   1.00
H298   H     0.37446   0.15327   0.78918   0.00000  Uiso   1.00
H299   H     0.37493   0.04059   0.84668   0.00000  Uiso   1.00
O147   O     0.37505   0.01398   0.85990   0.00000  Uiso   1.00
O148   O     0.37520   0.01398   0.88852   0.00000  Uiso   1.00
H300   H     0.37523   0.04059   0.90175   0.00000  Uiso   1.00
H301   H     0.37522   0.09823   0.95940   0.00000  Uiso   1.00
O149   O     0.37518   0.11146   0.98601   0.00000  Uiso   1.00
O150   O     0.37502   0.14008   0.98601   0.00000  Uiso   1.00
H302   H     0.37491   0.15330   0.95939   0.00000  Uiso   1.00
H303   H     0.37444   0.21081   0.84673   0.00000  Uiso   1.00
O151   O     0.37433   0.23738   0.85893   0.00000  Uiso   1.00
O152   O     0.37433   0.23734   0.88969   0.00000  Uiso   1.00
H304   H     0.37446   0.21075   0.90182   0.00000  Uiso   1.00
Ni19   Ni    0.37484   0.12576   0.87423   0.00000  Uiso   1.00
C913   C     0.85852   0.37460   0.81632   0.00000  Uiso   1.00
C914   C     0.86633   0.37454   0.80282   0.00000  Uiso   1.00
C915   C     0.88215   0.37456   0.80283   0.00000  Uiso   1.00
C916   C     0.88993   0.37464   0.81635   0.00000  Uiso   1.00
C917   C     0.88172   0.37470   0.82938   0.00000  Uiso   1.00
C918   C     0.86671   0.37467   0.82937   0.00000  Uiso   1.00
C919   C     0.86242   0.37473   0.84396   0.00000  Uiso   1.00
N153   N     0.87421   0.37479   0.85326   0.00000  Uiso   1.00
C920   C     0.88601   0.37477   0.84397   0.00000  Uiso   1.00
N154   N     0.90017   0.37482   0.84825   0.00000  Uiso   1.00
C921   C     0.90444   0.37491   0.86240   0.00000  Uiso   1.00
N155   N     0.89515   0.37495   0.87420   0.00000  Uiso   1.00
C922   C     0.90445   0.37504   0.88600   0.00000  Uiso   1.00
C923   C     0.91904   0.37506   0.88171   0.00000  Uiso   1.00
C924   C     0.91904   0.37498   0.86669   0.00000  Uiso   1.00
N156   N     0.87422   0.37495   0.89513   0.00000  Uiso   1.00
C925   C     0.88602   0.37504   0.90443   0.00000  Uiso   1.00
N157   N     0.90017   0.37509   0.90015   0.00000  Uiso   1.00
C926   C     0.88172   0.37506   0.91902   0.00000  Uiso   1.00
C927   C     0.86671   0.37498   0.91902   0.00000  Uiso   1.00
C928   C     0.86242   0.37491   0.90442   0.00000  Uiso   1.00
C929   C     0.93207   0.37497   0.85849   0.00000  Uiso   1.00
C930   C     0.94558   0.37504   0.86628   0.00000  Uiso   1.00
C931   C     0.94558   0.37513   0.88213   0.00000  Uiso   1.00
C932   C     0.93208   0.37514   0.88992   0.00000  Uiso   1.00
C933   C     0.85850   0.37497   0.93205   0.00000  Uiso   1.00
C934   C     0.86629   0.37504   0.94556   0.00000  Uiso   1.00
C935   C     0.88214   0.37513   0.94556   0.00000  Uiso   1.00
C936   C     0.88993   0.37514   0.93206   0.00000  Uiso   1.00
N158   N     0.85328   0.37479   0.87419   0.00000  Uiso   1.00
C937   C     0.84399   0.37477   0.88599   0.00000  Uiso   1.00
N159   N     0.84827   0.37482   0.90014   0.00000  Uiso   1.00
C938   C     0.82940   0.37469   0.88170   0.00000  Uiso   1.00
C939   C     0.82939   0.37467   0.86669   0.00000  Uiso   1.00
C940   C     0.84398   0.37473   0.86239   0.00000  Uiso   1.00
C941   C     0.81634   0.37460   0.85850   0.00000  Uiso   1.00
C942   C     0.80284   0.37454   0.86631   0.00000  Uiso   1.00
C943   C     0.80285   0.37456   0.88212   0.00000  Uiso   1.00
C944   C     0.81637   0.37464   0.88991   0.00000  Uiso   1.00
N160   N     0.84826   0.37470   0.84824   0.00000  Uiso   1.00
H305   H     0.84656   0.37458   0.81664   0.00000  Uiso   1.00
H306   H     0.90190   0.37466   0.81668   0.00000  Uiso   1.00
H307   H     0.93175   0.37490   0.84652   0.00000  Uiso   1.00
H308   H     0.93175   0.37520   0.90188   0.00000  Uiso   1.00
H309   H     0.84653   0.37490   0.93173   0.00000  Uiso   1.00
H310   H     0.90190   0.37520   0.93174   0.00000  Uiso   1.00
H311   H     0.81666   0.37458   0.84653   0.00000  Uiso   1.00
H312   H     0.81670   0.37465   0.90187   0.00000  Uiso   1.00
C945   C     0.78936   0.37447   0.85865   0.00000  Uiso   1.00
C946   C     0.77603   0.37441   0.86644   0.00000  Uiso   1.00
C947   C     0.77605   0.37442   0.88204   0.00000  Uiso   1.00
C948   C     0.78939   0.37449   0.88980   0.00000  Uiso   1.00
C949   C     0.85868   0.37447   0.78934   0.00000  Uiso   1.00
C950   C     0.86647   0.37441   0.77601   0.00000  Uiso   1.00
C951   C     0.88207   0.37442   0.77603   0.00000  Uiso   1.00
C952   C     0.88983   0.37450   0.78937   0.00000  Uiso   1.00
C953   C     0.95909   0.37503   0.85863   0.00000  Uiso   1.00
C954   C     0.97229   0.37510   0.86661   0.00000  Uiso   1.00
C955   C     0.97229   0.37518   0.88180   0.00000  Uiso   1.00
C956   C     0.95909   0.37520   0.88977   0.00000  Uiso   1.00
C957   C     0.85864   0.37503   0.95907   0.00000  Uiso   1.00
C958   C     0.86662   0.37509   0.97227   0.00000  Uiso   1.00
C959   C     0.88180   0.37518   0.97228   0.00000  Uiso   1.00
C960   C     0.88978   0.37520   0.95907   0.00000  Uiso   1.00
H313   H     0.78916   0.37446   0.84668   0.00000  Uiso   1.00
O153   O     0.76259   0.37435   0.85888   0.00000  Uiso   1.00
O154   O     0.76263   0.37436   0.88964   0.00000  Uiso   1.00
H314   H     0.78922   0.37451   0.90178   0.00000  Uiso   1.00
H315   H     0.84670   0.37446   0.78914   0.00000  Uiso   1.00
O155   O     0.85891   0.37435   0.76257   0.00000  Uiso   1.00
O156   O     0.88966   0.37437   0.76262   0.00000  Uiso   1.00
H316   H     0.90180   0.37451   0.78920   0.00000  Uiso   1.00
H317   H     0.95938   0.37496   0.84667   0.00000  Uiso   1.00
O157   O     0.98600   0.37508   0.85989   0.00000  Uiso   1.00
O158   O     0.98600   0.37523   0.88852   0.00000  Uiso   1.00
H318   H     0.95939   0.37526   0.90174   0.00000  Uiso   1.00
H319   H     0.84668   0.37496   0.95936   0.00000  Uiso   1.00
O159   O     0.85990   0.37507   0.98597   0.00000  Uiso   1.00
O160   O     0.88852   0.37524   0.98598   0.00000  Uiso   1.00
H320   H     0.90175   0.37527   0.95937   0.00000  Uiso   1.00
Ni20   Ni    0.87422   0.37487   0.87420   0.00000  Uiso   1.00
C961   C     0.62546   0.81635   0.85852   0.00000  Uiso   1.00
C962   C     0.62552   0.80285   0.86633   0.00000  Uiso   1.00
C963   C     0.62551   0.80286   0.88214   0.00000  Uiso   1.00
C964   C     0.62543   0.81637   0.88993   0.00000  Uiso   1.00
C965   C     0.62538   0.82941   0.88172   0.00000  Uiso   1.00
C966   C     0.62539   0.82940   0.86672   0.00000  Uiso   1.00
C967   C     0.62534   0.84399   0.86242   0.00000  Uiso   1.00
N161   N     0.62528   0.85329   0.87422   0.00000  Uiso   1.00
C968   C     0.62531   0.84400   0.88602   0.00000  Uiso   1.00
N162   N     0.62525   0.84827   0.90017   0.00000  Uiso   1.00
C969   C     0.62517   0.86243   0.90445   0.00000  Uiso   1.00
N163   N     0.62513   0.87422   0.89516   0.00000  Uiso   1.00
C970   C     0.62503   0.88602   0.90445   0.00000  Uiso   1.00
C971   C     0.62501   0.88173   0.91904   0.00000  Uiso   1.00
C972   C     0.62509   0.86672   0.91904   0.00000  Uiso   1.00
N164   N     0.62513   0.89516   0.87422   0.00000  Uiso   1.00
C973   C     0.62503   0.90445   0.88602   0.00000  Uiso   1.00
N165   N     0.62498   0.90018   0.90017   0.00000  Uiso   1.00
C974   C     0.62501   0.91905   0.88173   0.00000  Uiso   1.00
C975   C     0.62510   0.91904   0.86672   0.00000  Uiso   1.00
C976   C     0.62517   0.90445   0.86243   0.00000  Uiso   1.00
C977   C     0.62510   0.85851   0.93208   0.00000  Uiso   1.00
C978   C     0.62502   0.86630   0.94558   0.00000  Uiso   1.00
C979   C     0.62493   0.88215   0.94558   0.00000  Uiso   1.00
C980   C     0.62492   0.88994   0.93208   0.00000  Uiso   1.00
C981   C     0.62511   0.93208   0.85851   0.00000  Uiso   1.00
C982   C     0.62503   0.94558   0.86630   0.00000  Uiso   1.00
C983   C     0.62494   0.94558   0.88215   0.00000  Uiso   1.00
C984   C     0.62493   0.93208   0.88994   0.00000  Uiso   1.00
N166   N     0.62528   0.87422   0.85328   0.00000  Uiso   1.00
C985   C     0.62531   0.88602   0.84399   0.00000  Uiso   1.00
N167   N     0.62526   0.90017   0.84827   0.00000  Uiso   1.00
C986   C     0.62538   0.88173   0.82940   0.00000  Uiso   1.00
C987   C     0.62539   0.86672   0.82939   0.00000  Uiso   1.00
C988   C     0.62534   0.86242   0.84399   0.00000  Uiso   1.00
C989   C     0.62546   0.85853   0.81635   0.00000  Uiso   1.00
C990   C     0.62552   0.86634   0.80284   0.00000  Uiso   1.00
C991   C     0.62551   0.88215   0.80286   0.00000  Uiso   1.00
C992   C     0.62543   0.88994   0.81637   0.00000  Uiso   1.00
N168   N     0.62536   0.84827   0.84826   0.00000  Uiso   1.00
H321   H     0.62548   0.81667   0.84656   0.00000  Uiso   1.00
H322   H     0.62542   0.81670   0.90190   0.00000  Uiso   1.00
H323   H     0.62518   0.84654   0.93175   0.00000  Uiso   1.00
H324   H     0.62486   0.90191   0.93176   0.00000  Uiso   1.00
H325   H     0.62518   0.93176   0.84654   0.00000  Uiso   1.00
H326   H     0.62486   0.93176   0.90191   0.00000  Uiso   1.00
H327   H     0.62548   0.84656   0.81666   0.00000  Uiso   1.00
H328   H     0.62542   0.90191   0.81670   0.00000  Uiso   1.00
C993   C     0.62559   0.85868   0.78936   0.00000  Uiso   1.00
C994   C     0.62564   0.86647   0.77604   0.00000  Uiso   1.00
C995   C     0.62564   0.88207   0.77606   0.00000  Uiso   1.00
C996   C     0.62557   0.88983   0.78940   0.00000  Uiso   1.00
C997   C     0.62559   0.78937   0.85867   0.00000  Uiso   1.00
C998   C     0.62564   0.77604   0.86646   0.00000  Uiso   1.00
C999   C     0.62564   0.77606   0.88206   0.00000  Uiso   1.00
C1000  C     0.62557   0.78940   0.88982   0.00000  Uiso   1.00
C1001  C     0.62503   0.85865   0.95909   0.00000  Uiso   1.00
C1002  C     0.62496   0.86663   0.97230   0.00000  Uiso   1.00
C1003  C     0.62487   0.88181   0.97230   0.00000  Uiso   1.00
C1004  C     0.62485   0.88979   0.95909   0.00000  Uiso   1.00
C1005  C     0.62504   0.95909   0.85865   0.00000  Uiso   1.00
C1006  C     0.62497   0.97230   0.86663   0.00000  Uiso   1.00
C1007  C     0.62488   0.97230   0.88182   0.00000  Uiso   1.00
C1008  C     0.62486   0.95910   0.88979   0.00000  Uiso   1.00
H329   H     0.62559   0.84671   0.78917   0.00000  Uiso   1.00
O161   O     0.62569   0.85891   0.76260   0.00000  Uiso   1.00
O162   O     0.62569   0.88967   0.76264   0.00000  Uiso   1.00
H330   H     0.62556   0.90181   0.78923   0.00000  Uiso   1.00
H331   H     0.62559   0.78917   0.84670   0.00000  Uiso   1.00
O163   O     0.62569   0.76260   0.85890   0.00000  Uiso   1.00
O164   O     0.62569   0.76264   0.88965   0.00000  Uiso   1.00
H332   H     0.62556   0.78923   0.90180   0.00000  Uiso   1.00
H333   H     0.62510   0.84669   0.95938   0.00000  Uiso   1.00
O165   O     0.62497   0.85991   0.98600   0.00000  Uiso   1.00
O166   O     0.62480   0.88853   0.98600   0.00000  Uiso   1.00
H334   H     0.62478   0.90176   0.95939   0.00000  Uiso   1.00
H335   H     0.62511   0.95939   0.84669   0.00000  Uiso   1.00
O167   O     0.62498   0.98600   0.85991   0.00000  Uiso   1.00
O168   O     0.62481   0.98600   0.88854   0.00000  Uiso   1.00
H336   H     0.62479   0.95939   0.90176   0.00000  Uiso   1.00
Ni21   Ni    0.62521   0.87422   0.87422   0.00000  Uiso   1.00
C1009  C     0.85853   0.62507   0.06790   0.00000  Uiso   1.00
C1010  C     0.86632   0.62499   0.05440   0.00000  Uiso   1.00
C1011  C     0.88217   0.62490   0.05440   0.00000  Uiso   1.00
C1012  C     0.88996   0.62489   0.06790   0.00000  Uiso   1.00
C1013  C     0.88175   0.62497   0.08094   0.00000  Uiso   1.00
C1014  C     0.86674   0.62505   0.08093   0.00000  Uiso   1.00
C1015  C     0.86245   0.62512   0.09553   0.00000  Uiso   1.00
N169   N     0.87425   0.62509   0.10482   0.00000  Uiso   1.00
C1016  C     0.88605   0.62499   0.09553   0.00000  Uiso   1.00
N170   N     0.90020   0.62494   0.09981   0.00000  Uiso   1.00
C1017  C     0.90447   0.62499   0.11396   0.00000  Uiso   1.00
N171   N     0.89518   0.62508   0.12576   0.00000  Uiso   1.00
C1018  C     0.90447   0.62512   0.13756   0.00000  Uiso   1.00
C1019  C     0.91907   0.62505   0.13327   0.00000  Uiso   1.00
C1020  C     0.91907   0.62496   0.11826   0.00000  Uiso   1.00
N172   N     0.87424   0.62523   0.14669   0.00000  Uiso   1.00
C1021  C     0.88604   0.62525   0.15599   0.00000  Uiso   1.00
N173   N     0.90019   0.62520   0.15171   0.00000  Uiso   1.00
C1022  C     0.88175   0.62532   0.17058   0.00000  Uiso   1.00
C1023  C     0.86674   0.62534   0.17058   0.00000  Uiso   1.00
C1024  C     0.86244   0.62529   0.15599   0.00000  Uiso   1.00
C1025  C     0.93211   0.62489   0.11005   0.00000  Uiso   1.00
C1026  C     0.94561   0.62489   0.11785   0.00000  Uiso   1.00
C1027  C     0.94560   0.62498   0.13370   0.00000  Uiso   1.00
C1028  C     0.93210   0.62506   0.14149   0.00000  Uiso   1.00
C1029  C     0.85855   0.62541   0.18363   0.00000  Uiso   1.00
C1030  C     0.86635   0.62546   0.19713   0.00000  Uiso   1.00
C1031  C     0.88217   0.62545   0.19712   0.00000  Uiso   1.00
C1032  C     0.88996   0.62538   0.18361   0.00000  Uiso   1.00
N174   N     0.85331   0.62524   0.12576   0.00000  Uiso   1.00
C1033  C     0.84401   0.62529   0.13755   0.00000  Uiso   1.00
N175   N     0.84829   0.62532   0.15171   0.00000  Uiso   1.00
C1034  C     0.82942   0.62535   0.13325   0.00000  Uiso   1.00
C1035  C     0.82943   0.62534   0.11824   0.00000  Uiso   1.00
C1036  C     0.84402   0.62526   0.11395   0.00000  Uiso   1.00
C1037  C     0.81639   0.62540   0.11003   0.00000  Uiso   1.00
C1038  C     0.80288   0.62548   0.11781   0.00000  Uiso   1.00
C1039  C     0.80287   0.62549   0.13363   0.00000  Uiso   1.00
C1040  C     0.81637   0.62543   0.14144   0.00000  Uiso   1.00
N176   N     0.84830   0.62521   0.09980   0.00000  Uiso   1.00
H337   H     0.84656   0.62514   0.06822   0.00000  Uiso   1.00
H338   H     0.90193   0.62482   0.06822   0.00000  Uiso   1.00
H339   H     0.93179   0.62482   0.09809   0.00000  Uiso   1.00
H340   H     0.93178   0.62513   0.15345   0.00000  Uiso   1.00
H341   H     0.84658   0.62543   0.18331   0.00000  Uiso   1.00
H342   H     0.90192   0.62536   0.18328   0.00000  Uiso   1.00
H343   H     0.81673   0.62539   0.09807   0.00000  Uiso   1.00
H344   H     0.81669   0.62544   0.15341   0.00000  Uiso   1.00
C1041  C     0.78942   0.62554   0.11013   0.00000  Uiso   1.00
C1042  C     0.77608   0.62562   0.11789   0.00000  Uiso   1.00
C1043  C     0.77606   0.62562   0.13349   0.00000  Uiso   1.00
C1044  C     0.78939   0.62556   0.14128   0.00000  Uiso   1.00
C1045  C     0.85867   0.62500   0.04089   0.00000  Uiso   1.00
C1046  C     0.86665   0.62493   0.02768   0.00000  Uiso   1.00
C1047  C     0.88183   0.62484   0.02768   0.00000  Uiso   1.00
C1048  C     0.88981   0.62482   0.04089   0.00000  Uiso   1.00
C1049  C     0.95912   0.62482   0.11021   0.00000  Uiso   1.00
C1050  C     0.97232   0.62484   0.11819   0.00000  Uiso   1.00
C1051  C     0.97232   0.62493   0.13337   0.00000  Uiso   1.00
C1052  C     0.95911   0.62500   0.14135   0.00000  Uiso   1.00
C1053  C     0.85870   0.62553   0.21061   0.00000  Uiso   1.00
C1054  C     0.86649   0.62558   0.22394   0.00000  Uiso   1.00
C1055  C     0.88209   0.62558   0.22392   0.00000  Uiso   1.00
C1056  C     0.88985   0.62551   0.21059   0.00000  Uiso   1.00
H345   H     0.78925   0.62554   0.09816   0.00000  Uiso   1.00
O169   O     0.76266   0.62568   0.11029   0.00000  Uiso   1.00
O170   O     0.76262   0.62568   0.14105   0.00000  Uiso   1.00
H346   H     0.78919   0.62556   0.15325   0.00000  Uiso   1.00
H347   H     0.84671   0.62507   0.04059   0.00000  Uiso   1.00
O171   O     0.85993   0.62495   0.01398   0.00000  Uiso   1.00
O172   O     0.88855   0.62478   0.01398   0.00000  Uiso   1.00
H348   H     0.90178   0.62475   0.04059   0.00000  Uiso   1.00
H349   H     0.95942   0.62476   0.09824   0.00000  Uiso   1.00
O173   O     0.98603   0.62478   0.11147   0.00000  Uiso   1.00
O174   O     0.98602   0.62494   0.14010   0.00000  Uiso   1.00
H350   H     0.95941   0.62506   0.15332   0.00000  Uiso   1.00
H351   H     0.84673   0.62554   0.21080   0.00000  Uiso   1.00
O175   O     0.85893   0.62564   0.23737   0.00000  Uiso   1.00
O176   O     0.88968   0.62563   0.23734   0.00000  Uiso   1.00
H352   H     0.90182   0.62550   0.21076   0.00000  Uiso   1.00
Ni22   Ni    0.87424   0.62516   0.12576   0.00000  Uiso   1.00
C1057  C     0.37462   0.81637   0.11005   0.00000  Uiso   1.00
C1058  C     0.37455   0.80286   0.11784   0.00000  Uiso   1.00
C1059  C     0.37453   0.80285   0.13365   0.00000  Uiso   1.00
C1060  C     0.37458   0.81635   0.14146   0.00000  Uiso   1.00
C1061  C     0.37465   0.82940   0.13327   0.00000  Uiso   1.00
C1062  C     0.37467   0.82940   0.11826   0.00000  Uiso   1.00
C1063  C     0.37474   0.84399   0.11397   0.00000  Uiso   1.00
N177   N     0.37476   0.85328   0.12577   0.00000  Uiso   1.00
C1064  C     0.37470   0.84399   0.13757   0.00000  Uiso   1.00
N178   N     0.37468   0.84827   0.15172   0.00000  Uiso   1.00
C1065  C     0.37470   0.86242   0.15600   0.00000  Uiso   1.00
N179   N     0.37475   0.87422   0.14670   0.00000  Uiso   1.00
C1066  C     0.37473   0.88602   0.15599   0.00000  Uiso   1.00
C1067  C     0.37465   0.88173   0.17058   0.00000  Uiso   1.00
C1068  C     0.37464   0.86672   0.17059   0.00000  Uiso   1.00
N180   N     0.37490   0.89516   0.12577   0.00000  Uiso   1.00
C1069  C     0.37486   0.90445   0.13756   0.00000  Uiso   1.00
N181   N     0.37478   0.90017   0.15171   0.00000  Uiso   1.00
C1070  C     0.37493   0.91904   0.13327   0.00000  Uiso   1.00
C1071  C     0.37502   0.91904   0.11826   0.00000  Uiso   1.00
C1072  C     0.37500   0.90445   0.11397   0.00000  Uiso   1.00
C1073  C     0.37457   0.85853   0.18364   0.00000  Uiso   1.00
C1074  C     0.37450   0.86634   0.19714   0.00000  Uiso   1.00
C1075  C     0.37451   0.88216   0.19713   0.00000  Uiso   1.00
C1076  C     0.37459   0.88994   0.18362   0.00000  Uiso   1.00
C1077  C     0.37509   0.93208   0.11005   0.00000  Uiso   1.00
C1078  C     0.37508   0.94558   0.11785   0.00000  Uiso   1.00
C1079  C     0.37499   0.94558   0.13370   0.00000  Uiso   1.00
C1080  C     0.37491   0.93208   0.14148   0.00000  Uiso   1.00
N182   N     0.37491   0.87422   0.10483   0.00000  Uiso   1.00
C1081  C     0.37500   0.88602   0.09554   0.00000  Uiso   1.00
N183   N     0.37504   0.90017   0.09981   0.00000  Uiso   1.00
C1082  C     0.37502   0.88172   0.08094   0.00000  Uiso   1.00
C1083  C     0.37494   0.86671   0.08094   0.00000  Uiso   1.00
C1084  C     0.37487   0.86242   0.09554   0.00000  Uiso   1.00
C1085  C     0.37493   0.85850   0.06791   0.00000  Uiso   1.00
C1086  C     0.37501   0.86629   0.05441   0.00000  Uiso   1.00
C1087  C     0.37509   0.88214   0.05440   0.00000  Uiso   1.00
C1088  C     0.37510   0.88993   0.06791   0.00000  Uiso   1.00
N184   N     0.37479   0.84827   0.09982   0.00000  Uiso   1.00
H353   H     0.37463   0.81670   0.09808   0.00000  Uiso   1.00
H354   H     0.37457   0.81667   0.15343   0.00000  Uiso   1.00
H355   H     0.37456   0.84657   0.18332   0.00000  Uiso   1.00
H356   H     0.37460   0.90191   0.18328   0.00000  Uiso   1.00
H357   H     0.37516   0.93176   0.09809   0.00000  Uiso   1.00
H358   H     0.37484   0.93176   0.15345   0.00000  Uiso   1.00
H359   H     0.37487   0.84653   0.06823   0.00000  Uiso   1.00
H360   H     0.37516   0.90190   0.06823   0.00000  Uiso   1.00
C1089  C     0.37500   0.85864   0.04090   0.00000  Uiso   1.00
C1090  C     0.37506   0.86661   0.02769   0.00000  Uiso   1.00
C1091  C     0.37514   0.88180   0.02769   0.00000  Uiso   1.00
C1092  C     0.37516   0.88978   0.04089   0.00000  Uiso   1.00
C1093  C     0.37448   0.78939   0.11016   0.00000  Uiso   1.00
C1094  C     0.37442   0.77606   0.11792   0.00000  Uiso   1.00
C1095  C     0.37441   0.77604   0.13352   0.00000  Uiso   1.00
C1096  C     0.37447   0.78937   0.14131   0.00000  Uiso   1.00
C1097  C     0.37443   0.85869   0.21062   0.00000  Uiso   1.00
C1098  C     0.37437   0.86648   0.22395   0.00000  Uiso   1.00
C1099  C     0.37437   0.88208   0.22393   0.00000  Uiso   1.00
C1100  C     0.37445   0.88984   0.21059   0.00000  Uiso   1.00
C1101  C     0.37515   0.95909   0.11020   0.00000  Uiso   1.00
C1102  C     0.37512   0.97230   0.11818   0.00000  Uiso   1.00
C1103  C     0.37504   0.97230   0.13337   0.00000  Uiso   1.00
C1104  C     0.37497   0.95909   0.14134   0.00000  Uiso   1.00
H361   H     0.37493   0.84667   0.04060   0.00000  Uiso   1.00
O177   O     0.37505   0.85989   0.01399   0.00000  Uiso   1.00
O178   O     0.37520   0.88852   0.01398   0.00000  Uiso   1.00
H362   H     0.37523   0.90175   0.04060   0.00000  Uiso   1.00
H363   H     0.37449   0.78922   0.09818   0.00000  Uiso   1.00
O179   O     0.37436   0.76264   0.11032   0.00000  Uiso   1.00
O180   O     0.37436   0.76260   0.14108   0.00000  Uiso   1.00
H364   H     0.37446   0.78917   0.15328   0.00000  Uiso   1.00
H365   H     0.37443   0.84672   0.21082   0.00000  Uiso   1.00
O181   O     0.37432   0.85892   0.23739   0.00000  Uiso   1.00
O182   O     0.37431   0.88968   0.23735   0.00000  Uiso   1.00
H366   H     0.37445   0.90181   0.21076   0.00000  Uiso   1.00
H367   H     0.37522   0.95939   0.09824   0.00000  Uiso   1.00
O183   O     0.37518   0.98600   0.11147   0.00000  Uiso   1.00
O184   O     0.37502   0.98600   0.14009   0.00000  Uiso   1.00
H368   H     0.37490   0.95939   0.15331   0.00000  Uiso   1.00
Ni23   Ni    0.37483   0.87422   0.12577   0.00000  Uiso   1.00
C1105  C     0.62541   0.18367   0.14149   0.00000  Uiso   1.00
C1106  C     0.62546   0.19717   0.13369   0.00000  Uiso   1.00
C1107  C     0.62545   0.19716   0.11787   0.00000  Uiso   1.00
C1108  C     0.62537   0.18365   0.11009   0.00000  Uiso   1.00
C1109  C     0.62531   0.17061   0.11829   0.00000  Uiso   1.00
C1110  C     0.62533   0.17062   0.13330   0.00000  Uiso   1.00
C1111  C     0.62528   0.15603   0.13760   0.00000  Uiso   1.00
N185   N     0.62522   0.14673   0.12580   0.00000  Uiso   1.00
C1112  C     0.62524   0.15602   0.11400   0.00000  Uiso   1.00
N186   N     0.62519   0.15174   0.09985   0.00000  Uiso   1.00
C1113  C     0.62510   0.13759   0.09557   0.00000  Uiso   1.00
N187   N     0.62506   0.12579   0.10486   0.00000  Uiso   1.00
C1114  C     0.62497   0.11400   0.09557   0.00000  Uiso   1.00
C1115  C     0.62495   0.11829   0.08098   0.00000  Uiso   1.00
C1116  C     0.62503   0.13330   0.08098   0.00000  Uiso   1.00
N188   N     0.62506   0.10486   0.12580   0.00000  Uiso   1.00
C1117  C     0.62497   0.09557   0.11400   0.00000  Uiso   1.00
N189   N     0.62493   0.09984   0.09985   0.00000  Uiso   1.00
C1118  C     0.62495   0.08097   0.11829   0.00000  Uiso   1.00
C1119  C     0.62503   0.08097   0.13330   0.00000  Uiso   1.00
C1120  C     0.62510   0.09557   0.13759   0.00000  Uiso   1.00
C1121  C     0.62505   0.14151   0.06794   0.00000  Uiso   1.00
C1122  C     0.62497   0.13372   0.05444   0.00000  Uiso   1.00
C1123  C     0.62488   0.11787   0.05444   0.00000  Uiso   1.00
C1124  C     0.62487   0.11008   0.06794   0.00000  Uiso   1.00
C1125  C     0.62504   0.06794   0.14151   0.00000  Uiso   1.00
C1126  C     0.62496   0.05443   0.13372   0.00000  Uiso   1.00
C1127  C     0.62488   0.05443   0.11787   0.00000  Uiso   1.00
C1128  C     0.62487   0.06793   0.11008   0.00000  Uiso   1.00
N190   N     0.62522   0.12580   0.14673   0.00000  Uiso   1.00
C1129  C     0.62524   0.11400   0.15602   0.00000  Uiso   1.00
N191   N     0.62519   0.09985   0.15175   0.00000  Uiso   1.00
C1130  C     0.62531   0.11829   0.17061   0.00000  Uiso   1.00
C1131  C     0.62533   0.13330   0.17062   0.00000  Uiso   1.00
C1132  C     0.62528   0.13760   0.15603   0.00000  Uiso   1.00
C1133  C     0.62541   0.14149   0.18367   0.00000  Uiso   1.00
C1134  C     0.62546   0.13368   0.19718   0.00000  Uiso   1.00
C1135  C     0.62545   0.11786   0.19716   0.00000  Uiso   1.00
C1136  C     0.62537   0.11008   0.18365   0.00000  Uiso   1.00
N192   N     0.62530   0.15175   0.15175   0.00000  Uiso   1.00
H369   H     0.62542   0.18335   0.15346   0.00000  Uiso   1.00
H370   H     0.62535   0.18331   0.09812   0.00000  Uiso   1.00
H371   H     0.62511   0.15348   0.06827   0.00000  Uiso   1.00
H372   H     0.62481   0.09811   0.06826   0.00000  Uiso   1.00
H373   H     0.62511   0.06826   0.15348   0.00000  Uiso   1.00
H374   H     0.62481   0.06826   0.09811   0.00000  Uiso   1.00
H375   H     0.62543   0.15346   0.18336   0.00000  Uiso   1.00
H376   H     0.62535   0.09811   0.18331   0.00000  Uiso   1.00
C1137  C     0.62554   0.14133   0.21066   0.00000  Uiso   1.00
C1138  C     0.62559   0.13354   0.22398   0.00000  Uiso   1.00
C1139  C     0.62558   0.11794   0.22396   0.00000  Uiso   1.00
C1140  C     0.62551   0.11018   0.21062   0.00000  Uiso   1.00
C1141  C     0.62554   0.21065   0.14134   0.00000  Uiso   1.00
C1142  C     0.62559   0.22398   0.13355   0.00000  Uiso   1.00
C1143  C     0.62558   0.22396   0.11795   0.00000  Uiso   1.00
C1144  C     0.62551   0.21062   0.11019   0.00000  Uiso   1.00
C1145  C     0.62499   0.14137   0.04093   0.00000  Uiso   1.00
C1146  C     0.62492   0.13339   0.02772   0.00000  Uiso   1.00
C1147  C     0.62483   0.11820   0.02772   0.00000  Uiso   1.00
C1148  C     0.62481   0.11023   0.04092   0.00000  Uiso   1.00
C1149  C     0.62498   0.04092   0.14137   0.00000  Uiso   1.00
C1150  C     0.62491   0.02772   0.13339   0.00000  Uiso   1.00
C1151  C     0.62483   0.02772   0.11820   0.00000  Uiso   1.00
C1152  C     0.62481   0.04092   0.11023   0.00000  Uiso   1.00
H377   H     0.62555   0.15331   0.21085   0.00000  Uiso   1.00
O185   O     0.62565   0.14110   0.23742   0.00000  Uiso   1.00
O186   O     0.62564   0.11035   0.23738   0.00000  Uiso   1.00
H378   H     0.62550   0.09821   0.21079   0.00000  Uiso   1.00
H379   H     0.62555   0.21085   0.15331   0.00000  Uiso   1.00
O187   O     0.62565   0.23742   0.14111   0.00000  Uiso   1.00
O188   O     0.62564   0.23738   0.11036   0.00000  Uiso   1.00
H380   H     0.62550   0.21079   0.09822   0.00000  Uiso   1.00
H381   H     0.62505   0.15333   0.04063   0.00000  Uiso   1.00
O189   O     0.62494   0.14011   0.01402   0.00000  Uiso   1.00
O190   O     0.62478   0.11149   0.01402   0.00000  Uiso   1.00
H382   H     0.62475   0.09826   0.04063   0.00000  Uiso   1.00
H383   H     0.62504   0.04063   0.15333   0.00000  Uiso   1.00
O191   O     0.62492   0.01402   0.14011   0.00000  Uiso   1.00
O192   O     0.62477   0.01401   0.11148   0.00000  Uiso   1.00
H384   H     0.62474   0.04062   0.09826   0.00000  Uiso   1.00
Ni24   Ni    0.62514   0.12579   0.12580   0.00000  Uiso   1.00
C1153  C     0.61008   0.56792   0.87508   0.00000  Uiso   1.00
C1154  C     0.61787   0.55442   0.87507   0.00000  Uiso   1.00
C1155  C     0.63372   0.55442   0.87498   0.00000  Uiso   1.00
C1156  C     0.64151   0.56792   0.87490   0.00000  Uiso   1.00
C1157  C     0.63330   0.58096   0.87491   0.00000  Uiso   1.00
C1158  C     0.61829   0.58096   0.87500   0.00000  Uiso   1.00
C1159  C     0.61399   0.59555   0.87498   0.00000  Uiso   1.00
N193   N     0.62579   0.60484   0.87488   0.00000  Uiso   1.00
C1160  C     0.63759   0.59555   0.87484   0.00000  Uiso   1.00
N194   N     0.65174   0.59983   0.87475   0.00000  Uiso   1.00
C1161  C     0.65602   0.61398   0.87470   0.00000  Uiso   1.00
N195   N     0.64673   0.62578   0.87472   0.00000  Uiso   1.00
C1162  C     0.65603   0.63758   0.87467   0.00000  Uiso   1.00
C1163  C     0.67062   0.63328   0.87461   0.00000  Uiso   1.00
C1164  C     0.67061   0.61827   0.87462   0.00000  Uiso   1.00
N196   N     0.62580   0.64672   0.87473   0.00000  Uiso   1.00
C1165  C     0.63760   0.65601   0.87467   0.00000  Uiso   1.00
N197   N     0.65175   0.65174   0.87464   0.00000  Uiso   1.00
C1166  C     0.63330   0.67061   0.87462   0.00000  Uiso   1.00
C1167  C     0.61829   0.67060   0.87463   0.00000  Uiso   1.00
C1168  C     0.61400   0.65601   0.87470   0.00000  Uiso   1.00
C1169  C     0.68365   0.61007   0.87457   0.00000  Uiso   1.00
C1170  C     0.69716   0.61785   0.87449   0.00000  Uiso   1.00
C1171  C     0.69717   0.63367   0.87448   0.00000  Uiso   1.00
C1172  C     0.68367   0.64147   0.87454   0.00000  Uiso   1.00
C1173  C     0.61009   0.68363   0.87458   0.00000  Uiso   1.00
C1174  C     0.61787   0.69714   0.87451   0.00000  Uiso   1.00
C1175  C     0.63369   0.69716   0.87449   0.00000  Uiso   1.00
C1176  C     0.64149   0.68365   0.87455   0.00000  Uiso   1.00
N198   N     0.60486   0.62578   0.87488   0.00000  Uiso   1.00
C1177  C     0.59557   0.63758   0.87485   0.00000  Uiso   1.00
N199   N     0.59985   0.65173   0.87476   0.00000  Uiso   1.00
C1178  C     0.58098   0.63329   0.87492   0.00000  Uiso   1.00
C1179  C     0.58097   0.61827   0.87500   0.00000  Uiso   1.00
C1180  C     0.59557   0.61398   0.87498   0.00000  Uiso   1.00
C1181  C     0.56794   0.61006   0.87509   0.00000  Uiso   1.00
C1182  C     0.55443   0.61785   0.87508   0.00000  Uiso   1.00
C1183  C     0.55444   0.63370   0.87498   0.00000  Uiso   1.00
C1184  C     0.56794   0.64149   0.87491   0.00000  Uiso   1.00
N200   N     0.59984   0.59983   0.87503   0.00000  Uiso   1.00
H385   H     0.59811   0.56824   0.87515   0.00000  Uiso   1.00
H386   H     0.65347   0.56825   0.87483   0.00000  Uiso   1.00
H387   H     0.68331   0.59810   0.87458   0.00000  Uiso   1.00
H388   H     0.68336   0.65344   0.87452   0.00000  Uiso   1.00
H389   H     0.59812   0.68330   0.87459   0.00000  Uiso   1.00
H390   H     0.65346   0.68334   0.87453   0.00000  Uiso   1.00
H391   H     0.56826   0.59810   0.87515   0.00000  Uiso   1.00
H392   H     0.56826   0.65346   0.87483   0.00000  Uiso   1.00
C1185  C     0.54092   0.61021   0.87515   0.00000  Uiso   1.00
C1186  C     0.52772   0.61819   0.87513   0.00000  Uiso   1.00
C1187  C     0.52772   0.63337   0.87504   0.00000  Uiso   1.00
C1188  C     0.54093   0.64135   0.87497   0.00000  Uiso   1.00
C1189  C     0.61022   0.54091   0.87515   0.00000  Uiso   1.00
C1190  C     0.61820   0.52770   0.87513   0.00000  Uiso   1.00
C1191  C     0.63338   0.52770   0.87504   0.00000  Uiso   1.00
C1192  C     0.64136   0.54091   0.87496   0.00000  Uiso   1.00
C1193  C     0.71062   0.61017   0.87443   0.00000  Uiso   1.00
C1194  C     0.72396   0.61793   0.87436   0.00000  Uiso   1.00
C1195  C     0.72398   0.63353   0.87435   0.00000  Uiso   1.00
C1196  C     0.71065   0.64132   0.87441   0.00000  Uiso   1.00
C1197  C     0.61019   0.71060   0.87445   0.00000  Uiso   1.00
C1198  C     0.61795   0.72394   0.87438   0.00000  Uiso   1.00
C1199  C     0.63356   0.72396   0.87437   0.00000  Uiso   1.00
C1200  C     0.64134   0.71064   0.87443   0.00000  Uiso   1.00
H393   H     0.54063   0.59824   0.87522   0.00000  Uiso   1.00
O193   O     0.51401   0.61147   0.87519   0.00000  Uiso   1.00
O194   O     0.51402   0.64009   0.87503   0.00000  Uiso   1.00
H394   H     0.54063   0.65332   0.87490   0.00000  Uiso   1.00
H395   H     0.59825   0.54061   0.87522   0.00000  Uiso   1.00
O195   O     0.61148   0.51400   0.87519   0.00000  Uiso   1.00
O196   O     0.64010   0.51400   0.87502   0.00000  Uiso   1.00
H396   H     0.65333   0.54061   0.87489   0.00000  Uiso   1.00
H397   H     0.71079   0.59820   0.87443   0.00000  Uiso   1.00
O197   O     0.73738   0.61034   0.87430   0.00000  Uiso   1.00
O198   O     0.73742   0.64109   0.87430   0.00000  Uiso   1.00
H398   H     0.71085   0.65330   0.87441   0.00000  Uiso   1.00
H399   H     0.59822   0.71078   0.87445   0.00000  Uiso   1.00
O199   O     0.61036   0.73736   0.87432   0.00000  Uiso   1.00
O200   O     0.64112   0.73740   0.87432   0.00000  Uiso   1.00
H400   H     0.65332   0.71083   0.87442   0.00000  Uiso   1.00
Ni25   Ni    0.62580   0.62578   0.87480   0.00000  Uiso   1.00
C1201  C     0.35852   0.56790   0.87494   0.00000  Uiso   1.00
C1202  C     0.36631   0.55440   0.87502   0.00000  Uiso   1.00
C1203  C     0.38216   0.55440   0.87510   0.00000  Uiso   1.00
C1204  C     0.38995   0.56790   0.87511   0.00000  Uiso   1.00
C1205  C     0.38174   0.58094   0.87503   0.00000  Uiso   1.00
C1206  C     0.36673   0.58094   0.87495   0.00000  Uiso   1.00
C1207  C     0.36244   0.59553   0.87488   0.00000  Uiso   1.00
N201   N     0.37424   0.60482   0.87491   0.00000  Uiso   1.00
C1208  C     0.38604   0.59553   0.87501   0.00000  Uiso   1.00
N202   N     0.40019   0.59981   0.87505   0.00000  Uiso   1.00
C1209  C     0.40447   0.61396   0.87500   0.00000  Uiso   1.00
N203   N     0.39517   0.62576   0.87491   0.00000  Uiso   1.00
C1210  C     0.40447   0.63756   0.87487   0.00000  Uiso   1.00
C1211  C     0.41906   0.63327   0.87494   0.00000  Uiso   1.00
C1212  C     0.41906   0.61825   0.87502   0.00000  Uiso   1.00
N204   N     0.37424   0.64669   0.87476   0.00000  Uiso   1.00
C1213  C     0.38604   0.65599   0.87473   0.00000  Uiso   1.00
N205   N     0.40019   0.65171   0.87478   0.00000  Uiso   1.00
C1214  C     0.38175   0.67058   0.87466   0.00000  Uiso   1.00
C1215  C     0.36674   0.67058   0.87465   0.00000  Uiso   1.00
C1216  C     0.36244   0.65599   0.87470   0.00000  Uiso   1.00
C1217  C     0.43210   0.61005   0.87510   0.00000  Uiso   1.00
C1218  C     0.44560   0.61784   0.87509   0.00000  Uiso   1.00
C1219  C     0.44560   0.63369   0.87500   0.00000  Uiso   1.00
C1220  C     0.43210   0.64148   0.87492   0.00000  Uiso   1.00
C1221  C     0.35855   0.68363   0.87457   0.00000  Uiso   1.00
C1222  C     0.36636   0.69713   0.87451   0.00000  Uiso   1.00
C1223  C     0.38217   0.69712   0.87452   0.00000  Uiso   1.00
C1224  C     0.38996   0.68361   0.87460   0.00000  Uiso   1.00
N206   N     0.35330   0.62576   0.87476   0.00000  Uiso   1.00
C1225  C     0.34401   0.63756   0.87471   0.00000  Uiso   1.00
N207   N     0.34829   0.65171   0.87468   0.00000  Uiso   1.00
C1226  C     0.32941   0.63326   0.87466   0.00000  Uiso   1.00
C1227  C     0.32942   0.61825   0.87468   0.00000  Uiso   1.00
C1228  C     0.34401   0.61396   0.87474   0.00000  Uiso   1.00
C1229  C     0.31639   0.61004   0.87463   0.00000  Uiso   1.00
C1230  C     0.30287   0.61782   0.87455   0.00000  Uiso   1.00
C1231  C     0.30286   0.63364   0.87454   0.00000  Uiso   1.00
C1232  C     0.31637   0.64145   0.87459   0.00000  Uiso   1.00
N208   N     0.34829   0.59981   0.87480   0.00000  Uiso   1.00
H401   H     0.34655   0.56822   0.87487   0.00000  Uiso   1.00
H402   H     0.40192   0.56822   0.87517   0.00000  Uiso   1.00
H403   H     0.43178   0.59808   0.87517   0.00000  Uiso   1.00
H404   H     0.43177   0.65345   0.87485   0.00000  Uiso   1.00
H405   H     0.34658   0.68331   0.87456   0.00000  Uiso   1.00
H406   H     0.40192   0.68328   0.87461   0.00000  Uiso   1.00
H407   H     0.31672   0.59807   0.87464   0.00000  Uiso   1.00
H408   H     0.31668   0.65341   0.87458   0.00000  Uiso   1.00
C1233  C     0.28941   0.61014   0.87449   0.00000  Uiso   1.00
C1234  C     0.27607   0.61790   0.87443   0.00000  Uiso   1.00
C1235  C     0.27606   0.63350   0.87442   0.00000  Uiso   1.00
C1236  C     0.28938   0.64129   0.87447   0.00000  Uiso   1.00
C1237  C     0.35866   0.54089   0.87500   0.00000  Uiso   1.00
C1238  C     0.36663   0.52768   0.87507   0.00000  Uiso   1.00
C1239  C     0.38182   0.52768   0.87516   0.00000  Uiso   1.00
C1240  C     0.38980   0.54088   0.87517   0.00000  Uiso   1.00
C1241  C     0.45911   0.61020   0.87516   0.00000  Uiso   1.00
C1242  C     0.47232   0.61818   0.87514   0.00000  Uiso   1.00
C1243  C     0.47232   0.63336   0.87505   0.00000  Uiso   1.00
C1244  C     0.45911   0.64134   0.87498   0.00000  Uiso   1.00
C1245  C     0.35870   0.71061   0.87444   0.00000  Uiso   1.00
C1246  C     0.36649   0.72394   0.87438   0.00000  Uiso   1.00
C1247  C     0.38210   0.72392   0.87438   0.00000  Uiso   1.00
C1248  C     0.38985   0.71058   0.87445   0.00000  Uiso   1.00
H409   H     0.28924   0.59817   0.87450   0.00000  Uiso   1.00
O201   O     0.26265   0.61031   0.87437   0.00000  Uiso   1.00
O202   O     0.26262   0.64106   0.87437   0.00000  Uiso   1.00
H410   H     0.28919   0.65327   0.87447   0.00000  Uiso   1.00
H411   H     0.34669   0.54059   0.87494   0.00000  Uiso   1.00
O203   O     0.35991   0.51398   0.87506   0.00000  Uiso   1.00
O204   O     0.38854   0.51398   0.87522   0.00000  Uiso   1.00
H412   H     0.40176   0.54059   0.87524   0.00000  Uiso   1.00
H413   H     0.45941   0.59823   0.87523   0.00000  Uiso   1.00
O205   O     0.48602   0.61146   0.87520   0.00000  Uiso   1.00
O206   O     0.48602   0.64009   0.87503   0.00000  Uiso   1.00
H414   H     0.45940   0.65331   0.87491   0.00000  Uiso   1.00
H415   H     0.34673   0.71081   0.87444   0.00000  Uiso   1.00
O207   O     0.35893   0.73738   0.87432   0.00000  Uiso   1.00
O208   O     0.38969   0.73734   0.87432   0.00000  Uiso   1.00
H416   H     0.40183   0.71076   0.87446   0.00000  Uiso   1.00
Ni26   Ni    0.37424   0.62576   0.87484   0.00000  Uiso   1.00
C1249  C     0.35852   0.31633   0.87460   0.00000  Uiso   1.00
C1250  C     0.36632   0.30282   0.87454   0.00000  Uiso   1.00
C1251  C     0.38214   0.30284   0.87456   0.00000  Uiso   1.00
C1252  C     0.38993   0.31635   0.87464   0.00000  Uiso   1.00
C1253  C     0.38172   0.32938   0.87469   0.00000  Uiso   1.00
C1254  C     0.36671   0.32937   0.87467   0.00000  Uiso   1.00
C1255  C     0.36241   0.34397   0.87473   0.00000  Uiso   1.00
N209   N     0.37421   0.35326   0.87479   0.00000  Uiso   1.00
C1256  C     0.38601   0.34397   0.87477   0.00000  Uiso   1.00
N210   N     0.40016   0.34825   0.87482   0.00000  Uiso   1.00
C1257  C     0.40444   0.36240   0.87491   0.00000  Uiso   1.00
N211   N     0.39515   0.37420   0.87494   0.00000  Uiso   1.00
C1258  C     0.40445   0.38600   0.87504   0.00000  Uiso   1.00
C1259  C     0.41904   0.38171   0.87506   0.00000  Uiso   1.00
C1260  C     0.41904   0.36670   0.87497   0.00000  Uiso   1.00
N212   N     0.37422   0.39514   0.87494   0.00000  Uiso   1.00
C1261  C     0.38602   0.40443   0.87503   0.00000  Uiso   1.00
N213   N     0.40017   0.40015   0.87508   0.00000  Uiso   1.00
C1262  C     0.38173   0.41902   0.87506   0.00000  Uiso   1.00
C1263  C     0.36671   0.41902   0.87497   0.00000  Uiso   1.00
C1264  C     0.36242   0.40443   0.87491   0.00000  Uiso   1.00
C1265  C     0.43207   0.35849   0.87496   0.00000  Uiso   1.00
C1266  C     0.44558   0.36628   0.87504   0.00000  Uiso   1.00
C1267  C     0.44558   0.38213   0.87512   0.00000  Uiso   1.00
C1268  C     0.43208   0.38992   0.87513   0.00000  Uiso   1.00
C1269  C     0.35850   0.43206   0.87496   0.00000  Uiso   1.00
C1270  C     0.36630   0.44556   0.87503   0.00000  Uiso   1.00
C1271  C     0.38214   0.44556   0.87512   0.00000  Uiso   1.00
C1272  C     0.38994   0.43206   0.87513   0.00000  Uiso   1.00
N214   N     0.35328   0.37420   0.87479   0.00000  Uiso   1.00
C1273  C     0.34399   0.38600   0.87477   0.00000  Uiso   1.00
N215   N     0.34827   0.40015   0.87482   0.00000  Uiso   1.00
C1274  C     0.32940   0.38171   0.87470   0.00000  Uiso   1.00
C1275  C     0.32939   0.36670   0.87468   0.00000  Uiso   1.00
C1276  C     0.34398   0.36240   0.87473   0.00000  Uiso   1.00
C1277  C     0.31634   0.35851   0.87460   0.00000  Uiso   1.00
C1278  C     0.30284   0.36631   0.87455   0.00000  Uiso   1.00
C1279  C     0.30285   0.38213   0.87457   0.00000  Uiso   1.00
C1280  C     0.31637   0.38991   0.87464   0.00000  Uiso   1.00
N216   N     0.34826   0.34825   0.87471   0.00000  Uiso   1.00
H417   H     0.34655   0.31664   0.87458   0.00000  Uiso   1.00
H418   H     0.40189   0.31668   0.87465   0.00000  Uiso   1.00
H419   H     0.43175   0.34652   0.87489   0.00000  Uiso   1.00
H420   H     0.43176   0.40188   0.87520   0.00000  Uiso   1.00
H421   H     0.34654   0.43173   0.87489   0.00000  Uiso   1.00
H422   H     0.40190   0.43174   0.87519   0.00000  Uiso   1.00
H423   H     0.31666   0.34654   0.87459   0.00000  Uiso   1.00
H424   H     0.31670   0.40188   0.87466   0.00000  Uiso   1.00
C1281  C     0.28936   0.35866   0.87448   0.00000  Uiso   1.00
C1282  C     0.27603   0.36645   0.87442   0.00000  Uiso   1.00
C1283  C     0.27605   0.38205   0.87443   0.00000  Uiso   1.00
C1284  C     0.28939   0.38981   0.87450   0.00000  Uiso   1.00
C1285  C     0.35867   0.28934   0.87447   0.00000  Uiso   1.00
C1286  C     0.36646   0.27602   0.87441   0.00000  Uiso   1.00
C1287  C     0.38206   0.27604   0.87442   0.00000  Uiso   1.00
C1288  C     0.38982   0.28938   0.87450   0.00000  Uiso   1.00
C1289  C     0.45909   0.35863   0.87502   0.00000  Uiso   1.00
C1290  C     0.47229   0.36661   0.87509   0.00000  Uiso   1.00
C1291  C     0.47230   0.38179   0.87517   0.00000  Uiso   1.00
C1292  C     0.45909   0.38977   0.87519   0.00000  Uiso   1.00
C1293  C     0.35865   0.45907   0.87502   0.00000  Uiso   1.00
C1294  C     0.36663   0.47228   0.87508   0.00000  Uiso   1.00
C1295  C     0.38181   0.47228   0.87517   0.00000  Uiso   1.00
C1296  C     0.38979   0.45907   0.87519   0.00000  Uiso   1.00
H425   H     0.28916   0.34669   0.87447   0.00000  Uiso   1.00
O209   O     0.26259   0.35889   0.87437   0.00000  Uiso   1.00
O210   O     0.26264   0.38965   0.87438   0.00000  Uiso   1.00
H426   H     0.28922   0.40178   0.87451   0.00000  Uiso   1.00
H427   H     0.34670   0.28914   0.87446   0.00000  Uiso   1.00
O211   O     0.35890   0.26258   0.87436   0.00000  Uiso   1.00
O212   O     0.38966   0.26262   0.87437   0.00000  Uiso   1.00
H428   H     0.40179   0.28921   0.87451   0.00000  Uiso   1.00
H429   H     0.45938   0.34666   0.87495   0.00000  Uiso   1.00
O213   O     0.48600   0.35989   0.87507   0.00000  Uiso   1.00
O214   O     0.48600   0.38851   0.87523   0.00000  Uiso   1.00
H430   H     0.45939   0.40174   0.87526   0.00000  Uiso   1.00
H431   H     0.34668   0.45936   0.87495   0.00000  Uiso   1.00
O215   O     0.35991   0.48598   0.87507   0.00000  Uiso   1.00
O216   O     0.38853   0.48598   0.87522   0.00000  Uiso   1.00
H432   H     0.40176   0.45937   0.87525   0.00000  Uiso   1.00
Ni27   Ni    0.37422   0.37420   0.87487   0.00000  Uiso   1.00
C1297  C     0.61006   0.31637   0.87462   0.00000  Uiso   1.00
C1298  C     0.61784   0.30286   0.87454   0.00000  Uiso   1.00
C1299  C     0.63366   0.30285   0.87453   0.00000  Uiso   1.00
C1300  C     0.64147   0.31635   0.87458   0.00000  Uiso   1.00
C1301  C     0.63328   0.32940   0.87465   0.00000  Uiso   1.00
C1302  C     0.61827   0.32940   0.87467   0.00000  Uiso   1.00
C1303  C     0.61398   0.34399   0.87474   0.00000  Uiso   1.00
N217   N     0.62578   0.35329   0.87476   0.00000  Uiso   1.00
C1304  C     0.63757   0.34399   0.87471   0.00000  Uiso   1.00
N218   N     0.65173   0.34827   0.87468   0.00000  Uiso   1.00
C1305  C     0.65601   0.36243   0.87470   0.00000  Uiso   1.00
N219   N     0.64671   0.37422   0.87476   0.00000  Uiso   1.00
C1306  C     0.65600   0.38602   0.87473   0.00000  Uiso   1.00
C1307  C     0.67059   0.38174   0.87466   0.00000  Uiso   1.00
C1308  C     0.67060   0.36673   0.87464   0.00000  Uiso   1.00
N220   N     0.62577   0.39516   0.87491   0.00000  Uiso   1.00
C1309  C     0.63757   0.40445   0.87487   0.00000  Uiso   1.00
N221   N     0.65172   0.40018   0.87478   0.00000  Uiso   1.00
C1310  C     0.63328   0.41904   0.87494   0.00000  Uiso   1.00
C1311  C     0.61827   0.41904   0.87503   0.00000  Uiso   1.00
C1312  C     0.61398   0.40445   0.87501   0.00000  Uiso   1.00
C1313  C     0.68365   0.35854   0.87457   0.00000  Uiso   1.00
C1314  C     0.69715   0.36635   0.87450   0.00000  Uiso   1.00
C1315  C     0.69714   0.38216   0.87451   0.00000  Uiso   1.00
C1316  C     0.68363   0.38995   0.87460   0.00000  Uiso   1.00
C1317  C     0.61006   0.43208   0.87511   0.00000  Uiso   1.00
C1318  C     0.61785   0.44558   0.87509   0.00000  Uiso   1.00
C1319  C     0.63370   0.44558   0.87500   0.00000  Uiso   1.00
C1320  C     0.64149   0.43208   0.87492   0.00000  Uiso   1.00
N222   N     0.60484   0.37422   0.87492   0.00000  Uiso   1.00
C1321  C     0.59554   0.38602   0.87501   0.00000  Uiso   1.00
N223   N     0.59982   0.40017   0.87506   0.00000  Uiso   1.00
C1322  C     0.58095   0.38172   0.87504   0.00000  Uiso   1.00
C1323  C     0.58095   0.36671   0.87495   0.00000  Uiso   1.00
C1324  C     0.59555   0.36242   0.87488   0.00000  Uiso   1.00
C1325  C     0.56792   0.35850   0.87494   0.00000  Uiso   1.00
C1326  C     0.55441   0.36629   0.87502   0.00000  Uiso   1.00
C1327  C     0.55441   0.38214   0.87511   0.00000  Uiso   1.00
C1328  C     0.56791   0.38993   0.87512   0.00000  Uiso   1.00
N224   N     0.59982   0.34827   0.87480   0.00000  Uiso   1.00
H433   H     0.59809   0.31670   0.87463   0.00000  Uiso   1.00
H434   H     0.65343   0.31667   0.87457   0.00000  Uiso   1.00
H435   H     0.68333   0.34657   0.87455   0.00000  Uiso   1.00
H436   H     0.68329   0.40191   0.87461   0.00000  Uiso   1.00
H437   H     0.59809   0.43176   0.87517   0.00000  Uiso   1.00
H438   H     0.65346   0.43176   0.87485   0.00000  Uiso   1.00
H439   H     0.56824   0.34653   0.87488   0.00000  Uiso   1.00
H440   H     0.56824   0.40190   0.87518   0.00000  Uiso   1.00
C1329  C     0.54090   0.35864   0.87501   0.00000  Uiso   1.00
C1330  C     0.52770   0.36661   0.87508   0.00000  Uiso   1.00
C1331  C     0.52769   0.38180   0.87516   0.00000  Uiso   1.00
C1332  C     0.54090   0.38978   0.87518   0.00000  Uiso   1.00
C1333  C     0.61016   0.28940   0.87448   0.00000  Uiso   1.00
C1334  C     0.61792   0.27606   0.87441   0.00000  Uiso   1.00
C1335  C     0.63353   0.27604   0.87441   0.00000  Uiso   1.00
C1336  C     0.64132   0.28937   0.87446   0.00000  Uiso   1.00
C1337  C     0.71063   0.35869   0.87443   0.00000  Uiso   1.00
C1338  C     0.72396   0.36649   0.87437   0.00000  Uiso   1.00
C1339  C     0.72394   0.38209   0.87437   0.00000  Uiso   1.00
C1340  C     0.71060   0.38985   0.87445   0.00000  Uiso   1.00
C1341  C     0.61021   0.45910   0.87516   0.00000  Uiso   1.00
C1342  C     0.61819   0.47230   0.87514   0.00000  Uiso   1.00
C1343  C     0.63338   0.47230   0.87505   0.00000  Uiso   1.00
C1344  C     0.64135   0.45909   0.87498   0.00000  Uiso   1.00
H441   H     0.54061   0.34667   0.87494   0.00000  Uiso   1.00
O217   O     0.51399   0.35989   0.87506   0.00000  Uiso   1.00
O218   O     0.51399   0.38851   0.87522   0.00000  Uiso   1.00
H442   H     0.54060   0.40174   0.87525   0.00000  Uiso   1.00
H443   H     0.59819   0.28922   0.87449   0.00000  Uiso   1.00
O219   O     0.61033   0.26264   0.87436   0.00000  Uiso   1.00
O220   O     0.64109   0.26260   0.87436   0.00000  Uiso   1.00
H444   H     0.65329   0.28917   0.87446   0.00000  Uiso   1.00
H445   H     0.71083   0.34672   0.87443   0.00000  Uiso   1.00
O221   O     0.73740   0.35893   0.87431   0.00000  Uiso   1.00
O222   O     0.73736   0.38968   0.87431   0.00000  Uiso   1.00
H446   H     0.71077   0.40182   0.87445   0.00000  Uiso   1.00
H447   H     0.59825   0.45939   0.87523   0.00000  Uiso   1.00
O223   O     0.61147   0.48600   0.87520   0.00000  Uiso   1.00
O224   O     0.64010   0.48600   0.87503   0.00000  Uiso   1.00
H448   H     0.65332   0.45939   0.87491   0.00000  Uiso   1.00
Ni28   Ni    0.62577   0.37422   0.87484   0.00000  Uiso   1.00
C1345  C     0.61005   0.31639   0.12541   0.00000  Uiso   1.00
C1346  C     0.61784   0.30287   0.12548   0.00000  Uiso   1.00
C1347  C     0.63365   0.30286   0.12550   0.00000  Uiso   1.00
C1348  C     0.64146   0.31636   0.12543   0.00000  Uiso   1.00
C1349  C     0.63327   0.32941   0.12536   0.00000  Uiso   1.00
C1350  C     0.61826   0.32942   0.12535   0.00000  Uiso   1.00
C1351  C     0.61397   0.34401   0.12527   0.00000  Uiso   1.00
N225   N     0.62577   0.35330   0.12525   0.00000  Uiso   1.00
C1352  C     0.63757   0.34401   0.12530   0.00000  Uiso   1.00
N226   N     0.65173   0.34828   0.12532   0.00000  Uiso   1.00
C1353  C     0.65600   0.36244   0.12529   0.00000  Uiso   1.00
N227   N     0.64671   0.37424   0.12524   0.00000  Uiso   1.00
C1354  C     0.65600   0.38604   0.12526   0.00000  Uiso   1.00
C1355  C     0.67059   0.38175   0.12533   0.00000  Uiso   1.00
C1356  C     0.67060   0.36674   0.12534   0.00000  Uiso   1.00
N228   N     0.62578   0.39517   0.12509   0.00000  Uiso   1.00
C1357  C     0.63758   0.40447   0.12512   0.00000  Uiso   1.00
N229   N     0.65173   0.40019   0.12521   0.00000  Uiso   1.00
C1358  C     0.63329   0.41906   0.12505   0.00000  Uiso   1.00
C1359  C     0.61827   0.41906   0.12497   0.00000  Uiso   1.00
C1360  C     0.61398   0.40447   0.12499   0.00000  Uiso   1.00
C1361  C     0.68365   0.35855   0.12541   0.00000  Uiso   1.00
C1362  C     0.69715   0.36635   0.12546   0.00000  Uiso   1.00
C1363  C     0.69714   0.38217   0.12545   0.00000  Uiso   1.00
C1364  C     0.68363   0.38995   0.12538   0.00000  Uiso   1.00
C1365  C     0.61007   0.43210   0.12489   0.00000  Uiso   1.00
C1366  C     0.61786   0.44560   0.12490   0.00000  Uiso   1.00
C1367  C     0.63371   0.44560   0.12498   0.00000  Uiso   1.00
C1368  C     0.64150   0.43210   0.12506   0.00000  Uiso   1.00
N230   N     0.60484   0.37424   0.12510   0.00000  Uiso   1.00
C1369  C     0.59555   0.38604   0.12500   0.00000  Uiso   1.00
N231   N     0.59983   0.40019   0.12495   0.00000  Uiso   1.00
C1370  C     0.58095   0.38174   0.12498   0.00000  Uiso   1.00
C1371  C     0.58095   0.36673   0.12506   0.00000  Uiso   1.00
C1372  C     0.59554   0.36244   0.12513   0.00000  Uiso   1.00
C1373  C     0.56792   0.35852   0.12508   0.00000  Uiso   1.00
C1374  C     0.55441   0.36631   0.12500   0.00000  Uiso   1.00
C1375  C     0.55441   0.38216   0.12491   0.00000  Uiso   1.00
C1376  C     0.56792   0.38995   0.12490   0.00000  Uiso   1.00
N232   N     0.59982   0.34829   0.12522   0.00000  Uiso   1.00
H449   H     0.59809   0.31672   0.12540   0.00000  Uiso   1.00
H450   H     0.65343   0.31668   0.12545   0.00000  Uiso   1.00
H451   H     0.68333   0.34658   0.12543   0.00000  Uiso   1.00
H452   H     0.68330   0.40192   0.12536   0.00000  Uiso   1.00
H453   H     0.59810   0.43178   0.12483   0.00000  Uiso   1.00
H454   H     0.65347   0.43177   0.12513   0.00000  Uiso   1.00
H455   H     0.56824   0.34655   0.12515   0.00000  Uiso   1.00
H456   H     0.56824   0.40192   0.12483   0.00000  Uiso   1.00
C1377  C     0.54090   0.35866   0.12501   0.00000  Uiso   1.00
C1378  C     0.52770   0.36664   0.12494   0.00000  Uiso   1.00
C1379  C     0.52770   0.38182   0.12485   0.00000  Uiso   1.00
C1380  C     0.54090   0.38980   0.12483   0.00000  Uiso   1.00
C1381  C     0.61015   0.28941   0.12555   0.00000  Uiso   1.00
C1382  C     0.61791   0.27607   0.12562   0.00000  Uiso   1.00
C1383  C     0.63351   0.27605   0.12563   0.00000  Uiso   1.00
C1384  C     0.64131   0.28938   0.12557   0.00000  Uiso   1.00
C1385  C     0.71063   0.35870   0.12553   0.00000  Uiso   1.00
C1386  C     0.72396   0.36649   0.12558   0.00000  Uiso   1.00
C1387  C     0.72394   0.38209   0.12558   0.00000  Uiso   1.00
C1388  C     0.71060   0.38985   0.12551   0.00000  Uiso   1.00
C1389  C     0.61022   0.45911   0.12482   0.00000  Uiso   1.00
C1390  C     0.61820   0.47232   0.12484   0.00000  Uiso   1.00
C1391  C     0.63338   0.47232   0.12492   0.00000  Uiso   1.00
C1392  C     0.64136   0.45911   0.12499   0.00000  Uiso   1.00
H457   H     0.54061   0.34669   0.12508   0.00000  Uiso   1.00
O225   O     0.51399   0.35991   0.12496   0.00000  Uiso   1.00
O226   O     0.51399   0.38854   0.12479   0.00000  Uiso   1.00
H458   H     0.54061   0.40177   0.12477   0.00000  Uiso   1.00
H459   H     0.59818   0.28924   0.12555   0.00000  Uiso   1.00
O227   O     0.61032   0.26266   0.12568   0.00000  Uiso   1.00
O228   O     0.64107   0.26262   0.12568   0.00000  Uiso   1.00
H460   H     0.65328   0.28919   0.12557   0.00000  Uiso   1.00
H461   H     0.71082   0.34673   0.12553   0.00000  Uiso   1.00
O229   O     0.73739   0.35893   0.12563   0.00000  Uiso   1.00
O230   O     0.73736   0.38968   0.12563   0.00000  Uiso   1.00
H462   H     0.71077   0.40182   0.12550   0.00000  Uiso   1.00
H463   H     0.59825   0.45941   0.12476   0.00000  Uiso   1.00
O231   O     0.61148   0.48602   0.12478   0.00000  Uiso   1.00
O232   O     0.64011   0.48602   0.12493   0.00000  Uiso   1.00
H464   H     0.65333   0.45940   0.12506   0.00000  Uiso   1.00
Ni29   Ni    0.62577   0.37424   0.12517   0.00000  Uiso   1.00
C1393  C     0.61008   0.56793   0.12487   0.00000  Uiso   1.00
C1394  C     0.61787   0.55443   0.12488   0.00000  Uiso   1.00
C1395  C     0.63372   0.55443   0.12496   0.00000  Uiso   1.00
C1396  C     0.64152   0.56794   0.12504   0.00000  Uiso   1.00
C1397  C     0.63331   0.58097   0.12503   0.00000  Uiso   1.00
C1398  C     0.61829   0.58097   0.12495   0.00000  Uiso   1.00
C1399  C     0.61400   0.59557   0.12497   0.00000  Uiso   1.00
N233   N     0.62580   0.60486   0.12506   0.00000  Uiso   1.00
C1400  C     0.63760   0.59557   0.12509   0.00000  Uiso   1.00
N234   N     0.65175   0.59985   0.12518   0.00000  Uiso   1.00
C1401  C     0.65603   0.61400   0.12523   0.00000  Uiso   1.00
N235   N     0.64674   0.62580   0.12521   0.00000  Uiso   1.00
C1402  C     0.65604   0.63760   0.12527   0.00000  Uiso   1.00
C1403  C     0.67063   0.63330   0.12532   0.00000  Uiso   1.00
C1404  C     0.67062   0.61829   0.12530   0.00000  Uiso   1.00
N236   N     0.62581   0.64673   0.12522   0.00000  Uiso   1.00
C1405  C     0.63761   0.65603   0.12527   0.00000  Uiso   1.00
N237   N     0.65176   0.65175   0.12530   0.00000  Uiso   1.00
C1406  C     0.63331   0.67062   0.12533   0.00000  Uiso   1.00
C1407  C     0.61830   0.67061   0.12531   0.00000  Uiso   1.00
C1408  C     0.61401   0.65602   0.12524   0.00000  Uiso   1.00
C1409  C     0.68365   0.61008   0.12535   0.00000  Uiso   1.00
C1410  C     0.69716   0.61787   0.12543   0.00000  Uiso   1.00
C1411  C     0.69718   0.63368   0.12545   0.00000  Uiso   1.00
C1412  C     0.68368   0.64149   0.12539   0.00000  Uiso   1.00
C1413  C     0.61009   0.68365   0.12537   0.00000  Uiso   1.00
C1414  C     0.61788   0.69716   0.12545   0.00000  Uiso   1.00
C1415  C     0.63369   0.69717   0.12546   0.00000  Uiso   1.00
C1416  C     0.64150   0.68367   0.12541   0.00000  Uiso   1.00
N238   N     0.60487   0.62579   0.12506   0.00000  Uiso   1.00
C1417  C     0.59557   0.63759   0.12510   0.00000  Uiso   1.00
N239   N     0.59985   0.65174   0.12519   0.00000  Uiso   1.00
C1418  C     0.58098   0.63330   0.12503   0.00000  Uiso   1.00
C1419  C     0.58098   0.61829   0.12495   0.00000  Uiso   1.00
C1420  C     0.59557   0.61400   0.12497   0.00000  Uiso   1.00
C1421  C     0.56794   0.61008   0.12487   0.00000  Uiso   1.00
C1422  C     0.55444   0.61787   0.12488   0.00000  Uiso   1.00
C1423  C     0.55444   0.63372   0.12497   0.00000  Uiso   1.00
C1424  C     0.56795   0.64151   0.12505   0.00000  Uiso   1.00
N240   N     0.59985   0.59984   0.12493   0.00000  Uiso   1.00
H465   H     0.59812   0.56826   0.12481   0.00000  Uiso   1.00
H466   H     0.65348   0.56826   0.12510   0.00000  Uiso   1.00
H467   H     0.68332   0.59812   0.12534   0.00000  Uiso   1.00
H468   H     0.68336   0.65346   0.12541   0.00000  Uiso   1.00
H469   H     0.59812   0.68331   0.12536   0.00000  Uiso   1.00
H470   H     0.65347   0.68336   0.12542   0.00000  Uiso   1.00
H471   H     0.56826   0.59811   0.12481   0.00000  Uiso   1.00
H472   H     0.56827   0.65348   0.12511   0.00000  Uiso   1.00
C1425  C     0.54093   0.61023   0.12481   0.00000  Uiso   1.00
C1426  C     0.52772   0.61820   0.12483   0.00000  Uiso   1.00
C1427  C     0.52772   0.63339   0.12492   0.00000  Uiso   1.00
C1428  C     0.54093   0.64137   0.12498   0.00000  Uiso   1.00
C1429  C     0.61023   0.54092   0.12481   0.00000  Uiso   1.00
C1430  C     0.61821   0.52772   0.12483   0.00000  Uiso   1.00
C1431  C     0.63339   0.52772   0.12491   0.00000  Uiso   1.00
C1432  C     0.64137   0.54092   0.12498   0.00000  Uiso   1.00
C1433  C     0.71062   0.61019   0.12549   0.00000  Uiso   1.00
C1434  C     0.72397   0.61794   0.12556   0.00000  Uiso   1.00
C1435  C     0.72399   0.63355   0.12557   0.00000  Uiso   1.00
C1436  C     0.71066   0.64134   0.12552   0.00000  Uiso   1.00
C1437  C     0.61020   0.71062   0.12551   0.00000  Uiso   1.00
C1438  C     0.61795   0.72396   0.12559   0.00000  Uiso   1.00
C1439  C     0.63356   0.72398   0.12559   0.00000  Uiso   1.00
C1440  C     0.64135   0.71065   0.12554   0.00000  Uiso   1.00
H473   H     0.54063   0.59826   0.12475   0.00000  Uiso   1.00
O233   O     0.51402   0.61148   0.12477   0.00000  Uiso   1.00
O234   O     0.51402   0.64011   0.12493   0.00000  Uiso   1.00
H474   H     0.54064   0.65333   0.12505   0.00000  Uiso   1.00
H475   H     0.59826   0.54062   0.12474   0.00000  Uiso   1.00
O235   O     0.61149   0.51401   0.12477   0.00000  Uiso   1.00
O236   O     0.64011   0.51402   0.12493   0.00000  Uiso   1.00
H476   H     0.65334   0.54063   0.12504   0.00000  Uiso   1.00
H477   H     0.71080   0.59821   0.12548   0.00000  Uiso   1.00
O237   O     0.73738   0.61035   0.12561   0.00000  Uiso   1.00
O238   O     0.73743   0.64110   0.12562   0.00000  Uiso   1.00
H478   H     0.71086   0.65331   0.12553   0.00000  Uiso   1.00
H479   H     0.59822   0.71079   0.12551   0.00000  Uiso   1.00
O239   O     0.61036   0.73738   0.12564   0.00000  Uiso   1.00
O240   O     0.64112   0.73742   0.12565   0.00000  Uiso   1.00
H480   H     0.65332   0.71085   0.12554   0.00000  Uiso   1.00
Ni30   Ni    0.62580   0.62580   0.12514   0.00000  Uiso   1.00
C1441  C     0.35852   0.56792   0.12508   0.00000  Uiso   1.00
C1442  C     0.36631   0.55442   0.12500   0.00000  Uiso   1.00
C1443  C     0.38216   0.55442   0.12491   0.00000  Uiso   1.00
C1444  C     0.38996   0.56792   0.12490   0.00000  Uiso   1.00
C1445  C     0.38175   0.58096   0.12498   0.00000  Uiso   1.00
C1446  C     0.36674   0.58096   0.12507   0.00000  Uiso   1.00
C1447  C     0.36245   0.59555   0.12514   0.00000  Uiso   1.00
N241   N     0.37424   0.60484   0.12510   0.00000  Uiso   1.00
C1448  C     0.38604   0.59555   0.12500   0.00000  Uiso   1.00
N242   N     0.40020   0.59983   0.12496   0.00000  Uiso   1.00
C1449  C     0.40447   0.61398   0.12500   0.00000  Uiso   1.00
N243   N     0.39518   0.62578   0.12510   0.00000  Uiso   1.00
C1450  C     0.40447   0.63758   0.12513   0.00000  Uiso   1.00
C1451  C     0.41907   0.63329   0.12506   0.00000  Uiso   1.00
C1452  C     0.41907   0.61828   0.12497   0.00000  Uiso   1.00
N244   N     0.37424   0.64672   0.12525   0.00000  Uiso   1.00
C1453  C     0.38604   0.65601   0.12527   0.00000  Uiso   1.00
N245   N     0.40020   0.65173   0.12522   0.00000  Uiso   1.00
C1454  C     0.38175   0.67060   0.12534   0.00000  Uiso   1.00
C1455  C     0.36675   0.67060   0.12536   0.00000  Uiso   1.00
C1456  C     0.36245   0.65601   0.12531   0.00000  Uiso   1.00
C1457  C     0.43210   0.61007   0.12489   0.00000  Uiso   1.00
C1458  C     0.44561   0.61786   0.12490   0.00000  Uiso   1.00
C1459  C     0.44561   0.63371   0.12499   0.00000  Uiso   1.00
C1460  C     0.43210   0.64150   0.12507   0.00000  Uiso   1.00
C1461  C     0.35856   0.68365   0.12543   0.00000  Uiso   1.00
C1462  C     0.36636   0.69715   0.12548   0.00000  Uiso   1.00
C1463  C     0.38218   0.69714   0.12547   0.00000  Uiso   1.00
C1464  C     0.38996   0.68363   0.12539   0.00000  Uiso   1.00
N246   N     0.35331   0.62578   0.12526   0.00000  Uiso   1.00
C1465  C     0.34401   0.63758   0.12531   0.00000  Uiso   1.00
N247   N     0.34829   0.65173   0.12533   0.00000  Uiso   1.00
C1466  C     0.32942   0.63328   0.12537   0.00000  Uiso   1.00
C1467  C     0.32943   0.61827   0.12536   0.00000  Uiso   1.00
C1468  C     0.34402   0.61398   0.12528   0.00000  Uiso   1.00
C1469  C     0.31639   0.61006   0.12542   0.00000  Uiso   1.00
C1470  C     0.30288   0.61784   0.12550   0.00000  Uiso   1.00
C1471  C     0.30287   0.63366   0.12551   0.00000  Uiso   1.00
C1472  C     0.31637   0.64147   0.12545   0.00000  Uiso   1.00
N248   N     0.34829   0.59983   0.12523   0.00000  Uiso   1.00
H481   H     0.34656   0.56824   0.12516   0.00000  Uiso   1.00
H482   H     0.40192   0.56824   0.12483   0.00000  Uiso   1.00
H483   H     0.43178   0.59810   0.12483   0.00000  Uiso   1.00
H484   H     0.43178   0.65347   0.12514   0.00000  Uiso   1.00
H485   H     0.34659   0.68333   0.12545   0.00000  Uiso   1.00
H486   H     0.40193   0.68330   0.12538   0.00000  Uiso   1.00
H487   H     0.31673   0.59809   0.12541   0.00000  Uiso   1.00
H488   H     0.31669   0.65344   0.12546   0.00000  Uiso   1.00
C1473  C     0.28942   0.61016   0.12556   0.00000  Uiso   1.00
C1474  C     0.27608   0.61792   0.12564   0.00000  Uiso   1.00
C1475  C     0.27606   0.63352   0.12564   0.00000  Uiso   1.00
C1476  C     0.28939   0.64131   0.12558   0.00000  Uiso   1.00
C1477  C     0.35867   0.54091   0.12502   0.00000  Uiso   1.00
C1478  C     0.36664   0.52770   0.12495   0.00000  Uiso   1.00
C1479  C     0.38182   0.52770   0.12486   0.00000  Uiso   1.00
C1480  C     0.38980   0.54091   0.12484   0.00000  Uiso   1.00
C1481  C     0.45912   0.61022   0.12482   0.00000  Uiso   1.00
C1482  C     0.47232   0.61820   0.12484   0.00000  Uiso   1.00
C1483  C     0.47232   0.63338   0.12492   0.00000  Uiso   1.00
C1484  C     0.45912   0.64136   0.12500   0.00000  Uiso   1.00
C1485  C     0.35871   0.71063   0.12555   0.00000  Uiso   1.00
C1486  C     0.36650   0.72396   0.12560   0.00000  Uiso   1.00
C1487  C     0.38210   0.72395   0.12560   0.00000  Uiso   1.00
C1488  C     0.38986   0.71061   0.12553   0.00000  Uiso   1.00
H489   H     0.28925   0.59819   0.12556   0.00000  Uiso   1.00
O241   O     0.26266   0.61033   0.12570   0.00000  Uiso   1.00
O242   O     0.26262   0.64108   0.12570   0.00000  Uiso   1.00
H490   H     0.28919   0.65329   0.12559   0.00000  Uiso   1.00
H491   H     0.34670   0.54061   0.12509   0.00000  Uiso   1.00
O243   O     0.35992   0.51400   0.12496   0.00000  Uiso   1.00
O244   O     0.38854   0.51400   0.12479   0.00000  Uiso   1.00
H492   H     0.40177   0.54061   0.12477   0.00000  Uiso   1.00
H493   H     0.45941   0.59825   0.12476   0.00000  Uiso   1.00
O245   O     0.48603   0.61148   0.12478   0.00000  Uiso   1.00
O246   O     0.48603   0.64011   0.12494   0.00000  Uiso   1.00
H494   H     0.45941   0.65333   0.12506   0.00000  Uiso   1.00
H495   H     0.34674   0.71083   0.12556   0.00000  Uiso   1.00
O247   O     0.35894   0.73740   0.12565   0.00000  Uiso   1.00
O248   O     0.38969   0.73736   0.12565   0.00000  Uiso   1.00
H496   H     0.40183   0.71078   0.12552   0.00000  Uiso   1.00
Ni31   Ni    0.37424   0.62578   0.12517   0.00000  Uiso   1.00
C1489  C     0.35852   0.31635   0.12545   0.00000  Uiso   1.00
C1490  C     0.36632   0.30285   0.12550   0.00000  Uiso   1.00
C1491  C     0.38214   0.30286   0.12549   0.00000  Uiso   1.00
C1492  C     0.38993   0.31637   0.12541   0.00000  Uiso   1.00
C1493  C     0.38172   0.32940   0.12536   0.00000  Uiso   1.00
C1494  C     0.36671   0.32940   0.12538   0.00000  Uiso   1.00
C1495  C     0.36241   0.34399   0.12532   0.00000  Uiso   1.00
N249   N     0.37421   0.35329   0.12527   0.00000  Uiso   1.00
C1496  C     0.38601   0.34400   0.12529   0.00000  Uiso   1.00
N250   N     0.40016   0.34827   0.12523   0.00000  Uiso   1.00
C1497  C     0.40444   0.36243   0.12515   0.00000  Uiso   1.00
N251   N     0.39515   0.37422   0.12511   0.00000  Uiso   1.00
C1498  C     0.40445   0.38602   0.12501   0.00000  Uiso   1.00
C1499  C     0.41904   0.38173   0.12499   0.00000  Uiso   1.00
C1500  C     0.41904   0.36672   0.12507   0.00000  Uiso   1.00
N252   N     0.37422   0.39516   0.12511   0.00000  Uiso   1.00
C1501  C     0.38602   0.40445   0.12501   0.00000  Uiso   1.00
N253   N     0.40017   0.40017   0.12497   0.00000  Uiso   1.00
C1502  C     0.38173   0.41904   0.12499   0.00000  Uiso   1.00
C1503  C     0.36672   0.41904   0.12508   0.00000  Uiso   1.00
C1504  C     0.36242   0.40445   0.12515   0.00000  Uiso   1.00
C1505  C     0.43207   0.35851   0.12508   0.00000  Uiso   1.00
C1506  C     0.44558   0.36630   0.12500   0.00000  Uiso   1.00
C1507  C     0.44558   0.38215   0.12491   0.00000  Uiso   1.00
C1508  C     0.43208   0.38994   0.12491   0.00000  Uiso   1.00
C1509  C     0.35851   0.43208   0.12509   0.00000  Uiso   1.00
C1510  C     0.36630   0.44558   0.12501   0.00000  Uiso   1.00
C1511  C     0.38215   0.44558   0.12492   0.00000  Uiso   1.00
C1512  C     0.38994   0.43208   0.12491   0.00000  Uiso   1.00
N254   N     0.35328   0.37422   0.12527   0.00000  Uiso   1.00
C1513  C     0.34399   0.38602   0.12529   0.00000  Uiso   1.00
N255   N     0.34827   0.40017   0.12524   0.00000  Uiso   1.00
C1514  C     0.32940   0.38173   0.12537   0.00000  Uiso   1.00
C1515  C     0.32939   0.36672   0.12538   0.00000  Uiso   1.00
C1516  C     0.34398   0.36242   0.12532   0.00000  Uiso   1.00
C1517  C     0.31634   0.35853   0.12545   0.00000  Uiso   1.00
C1518  C     0.30284   0.36633   0.12551   0.00000  Uiso   1.00
C1519  C     0.30285   0.38215   0.12550   0.00000  Uiso   1.00
C1520  C     0.31637   0.38994   0.12542   0.00000  Uiso   1.00
N256   N     0.34826   0.34827   0.12535   0.00000  Uiso   1.00
H497   H     0.34655   0.31667   0.12546   0.00000  Uiso   1.00
H498   H     0.40189   0.31670   0.12540   0.00000  Uiso   1.00
H499   H     0.43175   0.34654   0.12516   0.00000  Uiso   1.00
H500   H     0.43176   0.40191   0.12484   0.00000  Uiso   1.00
H501   H     0.34654   0.43176   0.12516   0.00000  Uiso   1.00
H502   H     0.40191   0.43176   0.12484   0.00000  Uiso   1.00
H503   H     0.31666   0.34656   0.12547   0.00000  Uiso   1.00
H504   H     0.31670   0.40190   0.12541   0.00000  Uiso   1.00
C1521  C     0.28936   0.35868   0.12558   0.00000  Uiso   1.00
C1522  C     0.27603   0.36647   0.12564   0.00000  Uiso   1.00
C1523  C     0.27605   0.38207   0.12563   0.00000  Uiso   1.00
C1524  C     0.28939   0.38983   0.12556   0.00000  Uiso   1.00
C1525  C     0.35867   0.28937   0.12557   0.00000  Uiso   1.00
C1526  C     0.36645   0.27604   0.12562   0.00000  Uiso   1.00
C1527  C     0.38206   0.27606   0.12562   0.00000  Uiso   1.00
C1528  C     0.38982   0.28940   0.12555   0.00000  Uiso   1.00
C1529  C     0.45909   0.35865   0.12502   0.00000  Uiso   1.00
C1530  C     0.47229   0.36663   0.12494   0.00000  Uiso   1.00
C1531  C     0.47230   0.38181   0.12486   0.00000  Uiso   1.00
C1532  C     0.45909   0.38979   0.12484   0.00000  Uiso   1.00
C1533  C     0.35865   0.45909   0.12502   0.00000  Uiso   1.00
C1534  C     0.36663   0.47230   0.12495   0.00000  Uiso   1.00
C1535  C     0.38182   0.47230   0.12486   0.00000  Uiso   1.00
C1536  C     0.38979   0.45909   0.12484   0.00000  Uiso   1.00
H505   H     0.28916   0.34671   0.12559   0.00000  Uiso   1.00
O249   O     0.26259   0.35891   0.12569   0.00000  Uiso   1.00
O250   O     0.26264   0.38966   0.12569   0.00000  Uiso   1.00
H506   H     0.28922   0.40180   0.12556   0.00000  Uiso   1.00
H507   H     0.34669   0.28917   0.12558   0.00000  Uiso   1.00
O251   O     0.35889   0.26260   0.12568   0.00000  Uiso   1.00
O252   O     0.38965   0.26264   0.12567   0.00000  Uiso   1.00
H508   H     0.40179   0.28922   0.12554   0.00000  Uiso   1.00
H509   H     0.45938   0.34669   0.12509   0.00000  Uiso   1.00
O253   O     0.48600   0.35991   0.12496   0.00000  Uiso   1.00
O254   O     0.48600   0.38853   0.12479   0.00000  Uiso   1.00
H510   H     0.45939   0.40176   0.12477   0.00000  Uiso   1.00
H511   H     0.34669   0.45939   0.12509   0.00000  Uiso   1.00
O255   O     0.35991   0.48600   0.12497   0.00000  Uiso   1.00
O256   O     0.38854   0.48600   0.12480   0.00000  Uiso   1.00
H512   H     0.40176   0.45939   0.12477   0.00000  Uiso   1.00
Ni32   Ni    0.37422   0.37422   0.12519   0.00000  Uiso   1.00
C1537  C     0.87456   0.68366   0.64145   0.00000  Uiso   1.00
C1538  C     0.87451   0.69716   0.63364   0.00000  Uiso   1.00
C1539  C     0.87452   0.69714   0.61783   0.00000  Uiso   1.00
C1540  C     0.87459   0.68363   0.61004   0.00000  Uiso   1.00
C1541  C     0.87465   0.67060   0.61825   0.00000  Uiso   1.00
C1542  C     0.87463   0.67061   0.63326   0.00000  Uiso   1.00
C1543  C     0.87469   0.65601   0.63756   0.00000  Uiso   1.00
N257   N     0.87474   0.64672   0.62576   0.00000  Uiso   1.00
C1544  C     0.87472   0.65601   0.61396   0.00000  Uiso   1.00
N258   N     0.87477   0.65173   0.59981   0.00000  Uiso   1.00
C1545  C     0.87485   0.63758   0.59553   0.00000  Uiso   1.00
N259   N     0.87489   0.62578   0.60482   0.00000  Uiso   1.00
C1546  C     0.87498   0.61398   0.59553   0.00000  Uiso   1.00
C1547  C     0.87501   0.61827   0.58093   0.00000  Uiso   1.00
C1548  C     0.87492   0.63328   0.58094   0.00000  Uiso   1.00
N260   N     0.87489   0.60484   0.62576   0.00000  Uiso   1.00
C1549  C     0.87499   0.59555   0.61396   0.00000  Uiso   1.00
N261   N     0.87503   0.59983   0.59981   0.00000  Uiso   1.00
C1550  C     0.87501   0.58096   0.61825   0.00000  Uiso   1.00
C1551  C     0.87493   0.58096   0.63326   0.00000  Uiso   1.00
C1552  C     0.87486   0.59555   0.63755   0.00000  Uiso   1.00
C1553  C     0.87491   0.64149   0.56790   0.00000  Uiso   1.00
C1554  C     0.87498   0.63370   0.55440   0.00000  Uiso   1.00
C1555  C     0.87507   0.61785   0.55440   0.00000  Uiso   1.00
C1556  C     0.87508   0.61006   0.56790   0.00000  Uiso   1.00
C1557  C     0.87491   0.56792   0.64147   0.00000  Uiso   1.00
C1558  C     0.87499   0.55442   0.63368   0.00000  Uiso   1.00
C1559  C     0.87508   0.55442   0.61783   0.00000  Uiso   1.00
C1560  C     0.87509   0.56792   0.61004   0.00000  Uiso   1.00
N262   N     0.87474   0.62578   0.64669   0.00000  Uiso   1.00
C1561  C     0.87472   0.61399   0.65598   0.00000  Uiso   1.00
N263   N     0.87477   0.59983   0.65171   0.00000  Uiso   1.00
C1562  C     0.87465   0.61828   0.67057   0.00000  Uiso   1.00
C1563  C     0.87464   0.63329   0.67058   0.00000  Uiso   1.00
C1564  C     0.87469   0.63758   0.65599   0.00000  Uiso   1.00
C1565  C     0.87457   0.64148   0.68363   0.00000  Uiso   1.00
C1566  C     0.87452   0.63367   0.69713   0.00000  Uiso   1.00
C1567  C     0.87453   0.61786   0.69712   0.00000  Uiso   1.00
C1568  C     0.87460   0.61007   0.68361   0.00000  Uiso   1.00
N264   N     0.87467   0.65174   0.65171   0.00000  Uiso   1.00
H513   H     0.87455   0.68334   0.65342   0.00000  Uiso   1.00
H514   H     0.87460   0.68330   0.59807   0.00000  Uiso   1.00
H515   H     0.87484   0.65346   0.56822   0.00000  Uiso   1.00
H516   H     0.87515   0.59809   0.56822   0.00000  Uiso   1.00
H517   H     0.87485   0.56825   0.65344   0.00000  Uiso   1.00
H518   H     0.87515   0.56824   0.59807   0.00000  Uiso   1.00
H519   H     0.87456   0.65345   0.68331   0.00000  Uiso   1.00
H520   H     0.87461   0.59810   0.68327   0.00000  Uiso   1.00
C1569  C     0.87445   0.64133   0.71061   0.00000  Uiso   1.00
C1570  C     0.87440   0.63354   0.72394   0.00000  Uiso   1.00
C1571  C     0.87440   0.61794   0.72392   0.00000  Uiso   1.00
C1572  C     0.87447   0.61018   0.71058   0.00000  Uiso   1.00
C1573  C     0.87444   0.71064   0.64130   0.00000  Uiso   1.00
C1574  C     0.87439   0.72396   0.63351   0.00000  Uiso   1.00
C1575  C     0.87439   0.72395   0.61791   0.00000  Uiso   1.00
C1576  C     0.87445   0.71060   0.61015   0.00000  Uiso   1.00
C1577  C     0.87497   0.64135   0.54089   0.00000  Uiso   1.00
C1578  C     0.87504   0.63337   0.52768   0.00000  Uiso   1.00
C1579  C     0.87512   0.61818   0.52768   0.00000  Uiso   1.00
C1580  C     0.87514   0.61021   0.54088   0.00000  Uiso   1.00
C1581  C     0.87498   0.54091   0.64133   0.00000  Uiso   1.00
C1582  C     0.87504   0.52770   0.63335   0.00000  Uiso   1.00
C1583  C     0.87513   0.52770   0.61817   0.00000  Uiso   1.00
C1584  C     0.87515   0.54091   0.61019   0.00000  Uiso   1.00
H521   H     0.87445   0.65330   0.71081   0.00000  Uiso   1.00
O257   O     0.87435   0.64110   0.73738   0.00000  Uiso   1.00
O258   O     0.87435   0.61035   0.73734   0.00000  Uiso   1.00
H522   H     0.87448   0.59820   0.71075   0.00000  Uiso   1.00
H523   H     0.87444   0.71084   0.65327   0.00000  Uiso   1.00
O259   O     0.87433   0.73740   0.64107   0.00000  Uiso   1.00
O260   O     0.87433   0.73736   0.61031   0.00000  Uiso   1.00
H524   H     0.87446   0.71077   0.59817   0.00000  Uiso   1.00
H525   H     0.87490   0.65331   0.54059   0.00000  Uiso   1.00
O261   O     0.87502   0.64009   0.51398   0.00000  Uiso   1.00
O262   O     0.87518   0.61146   0.51398   0.00000  Uiso   1.00
H526   H     0.87521   0.59824   0.54059   0.00000  Uiso   1.00
H527   H     0.87491   0.54062   0.65330   0.00000  Uiso   1.00
O263   O     0.87503   0.51400   0.64007   0.00000  Uiso   1.00
O264   O     0.87519   0.51400   0.61145   0.00000  Uiso   1.00
H528   H     0.87521   0.54061   0.59822   0.00000  Uiso   1.00
Ni33   Ni    0.87482   0.62578   0.62576   0.00000  Uiso   1.00
C1585  C     0.35851   0.87495   0.56791   0.00000  Uiso   1.00
C1586  C     0.36630   0.87503   0.55441   0.00000  Uiso   1.00
C1587  C     0.38215   0.87512   0.55440   0.00000  Uiso   1.00
C1588  C     0.38994   0.87513   0.56791   0.00000  Uiso   1.00
C1589  C     0.38173   0.87505   0.58094   0.00000  Uiso   1.00
C1590  C     0.36672   0.87496   0.58094   0.00000  Uiso   1.00
C1591  C     0.36243   0.87489   0.59554   0.00000  Uiso   1.00
N265   N     0.37423   0.87493   0.60483   0.00000  Uiso   1.00
C1592  C     0.38603   0.87502   0.59554   0.00000  Uiso   1.00
N266   N     0.40018   0.87507   0.59981   0.00000  Uiso   1.00
C1593  C     0.40446   0.87502   0.61397   0.00000  Uiso   1.00
N267   N     0.39517   0.87492   0.62577   0.00000  Uiso   1.00
C1594  C     0.40446   0.87488   0.63756   0.00000  Uiso   1.00
C1595  C     0.41905   0.87495   0.63327   0.00000  Uiso   1.00
C1596  C     0.41905   0.87504   0.61826   0.00000  Uiso   1.00
N268   N     0.37423   0.87476   0.64670   0.00000  Uiso   1.00
C1597  C     0.38603   0.87474   0.65599   0.00000  Uiso   1.00
N269   N     0.40019   0.87479   0.65172   0.00000  Uiso   1.00
C1598  C     0.38174   0.87466   0.67058   0.00000  Uiso   1.00
C1599  C     0.36674   0.87465   0.67059   0.00000  Uiso   1.00
C1600  C     0.36244   0.87471   0.65600   0.00000  Uiso   1.00
C1601  C     0.43209   0.87512   0.61005   0.00000  Uiso   1.00
C1602  C     0.44559   0.87511   0.61785   0.00000  Uiso   1.00
C1603  C     0.44559   0.87502   0.63369   0.00000  Uiso   1.00
C1604  C     0.43209   0.87494   0.64148   0.00000  Uiso   1.00
C1605  C     0.35855   0.87457   0.68364   0.00000  Uiso   1.00
C1606  C     0.36635   0.87451   0.69714   0.00000  Uiso   1.00
C1607  C     0.38217   0.87452   0.69713   0.00000  Uiso   1.00
C1608  C     0.38995   0.87460   0.68362   0.00000  Uiso   1.00
N270   N     0.35330   0.87477   0.62577   0.00000  Uiso   1.00
C1609  C     0.34400   0.87471   0.63757   0.00000  Uiso   1.00
N271   N     0.34828   0.87468   0.65172   0.00000  Uiso   1.00
C1610  C     0.32941   0.87466   0.63327   0.00000  Uiso   1.00
C1611  C     0.32941   0.87468   0.61826   0.00000  Uiso   1.00
C1612  C     0.34400   0.87475   0.61397   0.00000  Uiso   1.00
C1613  C     0.31638   0.87463   0.61005   0.00000  Uiso   1.00
C1614  C     0.30287   0.87455   0.61784   0.00000  Uiso   1.00
C1615  C     0.30286   0.87454   0.63365   0.00000  Uiso   1.00
C1616  C     0.31636   0.87459   0.64146   0.00000  Uiso   1.00
N272   N     0.34828   0.87480   0.59982   0.00000  Uiso   1.00
H529   H     0.34654   0.87488   0.56823   0.00000  Uiso   1.00
H530   H     0.40191   0.87519   0.56823   0.00000  Uiso   1.00
H531   H     0.43177   0.87519   0.59808   0.00000  Uiso   1.00
H532   H     0.43177   0.87487   0.65345   0.00000  Uiso   1.00
H533   H     0.34658   0.87456   0.68332   0.00000  Uiso   1.00
H534   H     0.40192   0.87462   0.68328   0.00000  Uiso   1.00
H535   H     0.31671   0.87464   0.59808   0.00000  Uiso   1.00
H536   H     0.31668   0.87457   0.65343   0.00000  Uiso   1.00
C1617  C     0.28940   0.87449   0.61016   0.00000  Uiso   1.00
C1618  C     0.27607   0.87442   0.61792   0.00000  Uiso   1.00
C1619  C     0.27605   0.87441   0.63352   0.00000  Uiso   1.00
C1620  C     0.28938   0.87447   0.64131   0.00000  Uiso   1.00
C1621  C     0.35865   0.87502   0.54090   0.00000  Uiso   1.00
C1622  C     0.36662   0.87509   0.52769   0.00000  Uiso   1.00
C1623  C     0.38181   0.87517   0.52769   0.00000  Uiso   1.00
C1624  C     0.38979   0.87519   0.54089   0.00000  Uiso   1.00
C1625  C     0.45910   0.87518   0.61020   0.00000  Uiso   1.00
C1626  C     0.47231   0.87516   0.61818   0.00000  Uiso   1.00
C1627  C     0.47231   0.87507   0.63337   0.00000  Uiso   1.00
C1628  C     0.45910   0.87500   0.64134   0.00000  Uiso   1.00
C1629  C     0.35870   0.87444   0.71062   0.00000  Uiso   1.00
C1630  C     0.36649   0.87438   0.72395   0.00000  Uiso   1.00
C1631  C     0.38209   0.87438   0.72393   0.00000  Uiso   1.00
C1632  C     0.38985   0.87445   0.71059   0.00000  Uiso   1.00
H537   H     0.28923   0.87450   0.59819   0.00000  Uiso   1.00
O265   O     0.26265   0.87437   0.61033   0.00000  Uiso   1.00
O266   O     0.26261   0.87436   0.64108   0.00000  Uiso   1.00
H538   H     0.28918   0.87446   0.65328   0.00000  Uiso   1.00
H539   H     0.34668   0.87495   0.54060   0.00000  Uiso   1.00
O267   O     0.35990   0.87507   0.51399   0.00000  Uiso   1.00
O268   O     0.38852   0.87523   0.51398   0.00000  Uiso   1.00
H540   H     0.40175   0.87526   0.54060   0.00000  Uiso   1.00
H541   H     0.45940   0.87525   0.59824   0.00000  Uiso   1.00
O269   O     0.48601   0.87523   0.61146   0.00000  Uiso   1.00
O270   O     0.48601   0.87506   0.64009   0.00000  Uiso   1.00
H542   H     0.45940   0.87493   0.65331   0.00000  Uiso   1.00
H543   H     0.34673   0.87443   0.71082   0.00000  Uiso   1.00
O271   O     0.35893   0.87432   0.73739   0.00000  Uiso   1.00
O272   O     0.38969   0.87432   0.73735   0.00000  Uiso   1.00
H544   H     0.40182   0.87446   0.71076   0.00000  Uiso   1.00
Ni34   Ni    0.37423   0.87485   0.62577   0.00000  Uiso   1.00
C1633  C     0.12541   0.31639   0.61007   0.00000  Uiso   1.00
C1634  C     0.12549   0.30288   0.61786   0.00000  Uiso   1.00
C1635  C     0.12550   0.30287   0.63367   0.00000  Uiso   1.00
C1636  C     0.12544   0.31637   0.64148   0.00000  Uiso   1.00
C1637  C     0.12537   0.32942   0.63329   0.00000  Uiso   1.00
C1638  C     0.12535   0.32943   0.61828   0.00000  Uiso   1.00
C1639  C     0.12528   0.34402   0.61399   0.00000  Uiso   1.00
N273   N     0.12525   0.35331   0.62579   0.00000  Uiso   1.00
C1640  C     0.12531   0.34401   0.63759   0.00000  Uiso   1.00
N274   N     0.12533   0.34829   0.65174   0.00000  Uiso   1.00
C1641  C     0.12531   0.36245   0.65602   0.00000  Uiso   1.00
N275   N     0.12525   0.37424   0.64673   0.00000  Uiso   1.00
C1642  C     0.12528   0.38604   0.65602   0.00000  Uiso   1.00
C1643  C     0.12535   0.38175   0.67061   0.00000  Uiso   1.00
C1644  C     0.12536   0.36674   0.67061   0.00000  Uiso   1.00
N276   N     0.12510   0.39518   0.62579   0.00000  Uiso   1.00
C1645  C     0.12514   0.40447   0.63759   0.00000  Uiso   1.00
N277   N     0.12522   0.40020   0.65174   0.00000  Uiso   1.00
C1646  C     0.12507   0.41907   0.63330   0.00000  Uiso   1.00
C1647  C     0.12498   0.41907   0.61829   0.00000  Uiso   1.00
C1648  C     0.12500   0.40447   0.61399   0.00000  Uiso   1.00
C1649  C     0.12544   0.35855   0.68366   0.00000  Uiso   1.00
C1650  C     0.12549   0.36636   0.69717   0.00000  Uiso   1.00
C1651  C     0.12548   0.38218   0.69715   0.00000  Uiso   1.00
C1652  C     0.12540   0.38996   0.68364   0.00000  Uiso   1.00
C1653  C     0.12490   0.43210   0.61008   0.00000  Uiso   1.00
C1654  C     0.12491   0.44561   0.61787   0.00000  Uiso   1.00
C1655  C     0.12500   0.44561   0.63372   0.00000  Uiso   1.00
C1656  C     0.12508   0.43210   0.64151   0.00000  Uiso   1.00
N278   N     0.12510   0.37425   0.60485   0.00000  Uiso   1.00
C1657  C     0.12500   0.38604   0.59556   0.00000  Uiso   1.00
N279   N     0.12496   0.40020   0.59984   0.00000  Uiso   1.00
C1658  C     0.12498   0.38175   0.58097   0.00000  Uiso   1.00
C1659  C     0.12506   0.36674   0.58097   0.00000  Uiso   1.00
C1660  C     0.12514   0.36245   0.59556   0.00000  Uiso   1.00
C1661  C     0.12508   0.35853   0.56793   0.00000  Uiso   1.00
C1662  C     0.12500   0.36631   0.55443   0.00000  Uiso   1.00
C1663  C     0.12490   0.38216   0.55443   0.00000  Uiso   1.00
C1664  C     0.12490   0.38996   0.56793   0.00000  Uiso   1.00
N280   N     0.12522   0.34830   0.59984   0.00000  Uiso   1.00
H545   H     0.12540   0.31673   0.59810   0.00000  Uiso   1.00
H546   H     0.12546   0.31669   0.65345   0.00000  Uiso   1.00
H547   H     0.12545   0.34659   0.68334   0.00000  Uiso   1.00
H548   H     0.12539   0.40193   0.68331   0.00000  Uiso   1.00
H549   H     0.12484   0.43178   0.59811   0.00000  Uiso   1.00
H550   H     0.12515   0.43178   0.65348   0.00000  Uiso   1.00
H551   H     0.12515   0.34656   0.56826   0.00000  Uiso   1.00
H552   H     0.12483   0.40192   0.56825   0.00000  Uiso   1.00
C1665  C     0.12501   0.35867   0.54092   0.00000  Uiso   1.00
C1666  C     0.12494   0.36664   0.52771   0.00000  Uiso   1.00
C1667  C     0.12485   0.38183   0.52771   0.00000  Uiso   1.00
C1668  C     0.12483   0.38981   0.54092   0.00000  Uiso   1.00
C1669  C     0.12556   0.28942   0.61017   0.00000  Uiso   1.00
C1670  C     0.12563   0.27608   0.61793   0.00000  Uiso   1.00
C1671  C     0.12563   0.27606   0.63354   0.00000  Uiso   1.00
C1672  C     0.12557   0.28939   0.64133   0.00000  Uiso   1.00
C1673  C     0.12556   0.35871   0.71065   0.00000  Uiso   1.00
C1674  C     0.12561   0.36650   0.72397   0.00000  Uiso   1.00
C1675  C     0.12561   0.38210   0.72396   0.00000  Uiso   1.00
C1676  C     0.12554   0.38986   0.71062   0.00000  Uiso   1.00
C1677  C     0.12484   0.45912   0.61023   0.00000  Uiso   1.00
C1678  C     0.12486   0.47232   0.61821   0.00000  Uiso   1.00
C1679  C     0.12495   0.47232   0.63339   0.00000  Uiso   1.00
C1680  C     0.12502   0.45912   0.64137   0.00000  Uiso   1.00
H553   H     0.12508   0.34670   0.54063   0.00000  Uiso   1.00
O273   O     0.12495   0.35992   0.51401   0.00000  Uiso   1.00
O274   O     0.12478   0.38854   0.51401   0.00000  Uiso   1.00
H554   H     0.12476   0.40177   0.54062   0.00000  Uiso   1.00
H555   H     0.12555   0.28925   0.59820   0.00000  Uiso   1.00
O275   O     0.12569   0.26266   0.61034   0.00000  Uiso   1.00
O276   O     0.12569   0.26262   0.64109   0.00000  Uiso   1.00
H556   H     0.12558   0.28919   0.65330   0.00000  Uiso   1.00
H557   H     0.12556   0.34673   0.71084   0.00000  Uiso   1.00
O277   O     0.12567   0.35894   0.73741   0.00000  Uiso   1.00
O278   O     0.12567   0.38969   0.73738   0.00000  Uiso   1.00
H558   H     0.12554   0.40183   0.71079   0.00000  Uiso   1.00
H559   H     0.12477   0.45941   0.59826   0.00000  Uiso   1.00
O279   O     0.12480   0.48603   0.61149   0.00000  Uiso   1.00
O280   O     0.12496   0.48603   0.64012   0.00000  Uiso   1.00
H560   H     0.12508   0.45941   0.65334   0.00000  Uiso   1.00
Ni35   Ni    0.12517   0.37424   0.62579   0.00000  Uiso   1.00
C1681  C     0.64151   0.12543   0.68367   0.00000  Uiso   1.00
C1682  C     0.63370   0.12548   0.69717   0.00000  Uiso   1.00
C1683  C     0.61788   0.12546   0.69716   0.00000  Uiso   1.00
C1684  C     0.61010   0.12539   0.68365   0.00000  Uiso   1.00
C1685  C     0.61831   0.12533   0.67062   0.00000  Uiso   1.00
C1686  C     0.63331   0.12535   0.67062   0.00000  Uiso   1.00
C1687  C     0.63761   0.12530   0.65603   0.00000  Uiso   1.00
N281   N     0.62581   0.12524   0.64673   0.00000  Uiso   1.00
C1688  C     0.61401   0.12526   0.65602   0.00000  Uiso   1.00
N282   N     0.59986   0.12521   0.65175   0.00000  Uiso   1.00
C1689  C     0.59558   0.12513   0.63760   0.00000  Uiso   1.00
N283   N     0.60487   0.12509   0.62580   0.00000  Uiso   1.00
C1690  C     0.59558   0.12500   0.61400   0.00000  Uiso   1.00
C1691  C     0.58098   0.12498   0.61829   0.00000  Uiso   1.00
C1692  C     0.58099   0.12506   0.63330   0.00000  Uiso   1.00
N284   N     0.62581   0.12509   0.60486   0.00000  Uiso   1.00
C1693  C     0.61401   0.12500   0.59557   0.00000  Uiso   1.00
N285   N     0.59985   0.12495   0.59985   0.00000  Uiso   1.00
C1694  C     0.61830   0.12497   0.58098   0.00000  Uiso   1.00
C1695  C     0.63331   0.12506   0.58098   0.00000  Uiso   1.00
C1696  C     0.63760   0.12512   0.59557   0.00000  Uiso   1.00
C1697  C     0.56795   0.12507   0.64152   0.00000  Uiso   1.00
C1698  C     0.55445   0.12500   0.63373   0.00000  Uiso   1.00
C1699  C     0.55445   0.12491   0.61788   0.00000  Uiso   1.00
C1700  C     0.56795   0.12490   0.61008   0.00000  Uiso   1.00
C1701  C     0.64152   0.12506   0.56794   0.00000  Uiso   1.00
C1702  C     0.63373   0.12499   0.55444   0.00000  Uiso   1.00
C1703  C     0.61788   0.12490   0.55444   0.00000  Uiso   1.00
C1704  C     0.61009   0.12490   0.56794   0.00000  Uiso   1.00
N286   N     0.64674   0.12524   0.62580   0.00000  Uiso   1.00
C1705  C     0.65603   0.12526   0.61400   0.00000  Uiso   1.00
N287   N     0.65175   0.12521   0.59985   0.00000  Uiso   1.00
C1706  C     0.67062   0.12533   0.61829   0.00000  Uiso   1.00
C1707  C     0.67063   0.12535   0.63330   0.00000  Uiso   1.00
C1708  C     0.65604   0.12530   0.63760   0.00000  Uiso   1.00
C1709  C     0.68368   0.12542   0.64149   0.00000  Uiso   1.00
C1710  C     0.69719   0.12548   0.63368   0.00000  Uiso   1.00
C1711  C     0.69717   0.12546   0.61787   0.00000  Uiso   1.00
C1712  C     0.68366   0.12539   0.61008   0.00000  Uiso   1.00
N288   N     0.65177   0.12532   0.65175   0.00000  Uiso   1.00
H561   H     0.65347   0.12544   0.68336   0.00000  Uiso   1.00
H562   H     0.59813   0.12538   0.68332   0.00000  Uiso   1.00
H563   H     0.56828   0.12514   0.65348   0.00000  Uiso   1.00
H564   H     0.56827   0.12484   0.59812   0.00000  Uiso   1.00
H565   H     0.65349   0.12513   0.56826   0.00000  Uiso   1.00
H566   H     0.59812   0.12483   0.56826   0.00000  Uiso   1.00
H567   H     0.68337   0.12544   0.65346   0.00000  Uiso   1.00
H568   H     0.68332   0.12537   0.59812   0.00000  Uiso   1.00
C1713  C     0.71067   0.12555   0.64134   0.00000  Uiso   1.00
C1714  C     0.72399   0.12560   0.63355   0.00000  Uiso   1.00
C1715  C     0.72397   0.12559   0.61794   0.00000  Uiso   1.00
C1716  C     0.71063   0.12552   0.61018   0.00000  Uiso   1.00
C1717  C     0.64136   0.12555   0.71066   0.00000  Uiso   1.00
C1718  C     0.63357   0.12560   0.72398   0.00000  Uiso   1.00
C1719  C     0.61796   0.12560   0.72396   0.00000  Uiso   1.00
C1720  C     0.61020   0.12553   0.71062   0.00000  Uiso   1.00
C1721  C     0.54094   0.12501   0.64137   0.00000  Uiso   1.00
C1722  C     0.52773   0.12494   0.63339   0.00000  Uiso   1.00
C1723  C     0.52773   0.12486   0.61821   0.00000  Uiso   1.00
C1724  C     0.54093   0.12484   0.61023   0.00000  Uiso   1.00
C1725  C     0.64137   0.12500   0.54093   0.00000  Uiso   1.00
C1726  C     0.63339   0.12493   0.52772   0.00000  Uiso   1.00
C1727  C     0.61821   0.12485   0.52772   0.00000  Uiso   1.00
C1728  C     0.61023   0.12483   0.54092   0.00000  Uiso   1.00
H569   H     0.71087   0.12555   0.65331   0.00000  Uiso   1.00
O281   O     0.73743   0.12566   0.64110   0.00000  Uiso   1.00
O282   O     0.73739   0.12565   0.61035   0.00000  Uiso   1.00
H570   H     0.71080   0.12551   0.59821   0.00000  Uiso   1.00
H571   H     0.65333   0.12556   0.71085   0.00000  Uiso   1.00
O283   O     0.64113   0.12566   0.73742   0.00000  Uiso   1.00
O284   O     0.61037   0.12565   0.73738   0.00000  Uiso   1.00
H572   H     0.59823   0.12552   0.71079   0.00000  Uiso   1.00
H573   H     0.54064   0.12508   0.65334   0.00000  Uiso   1.00
O285   O     0.51403   0.12496   0.64011   0.00000  Uiso   1.00
O286   O     0.51403   0.12480   0.61149   0.00000  Uiso   1.00
H574   H     0.54064   0.12477   0.59827   0.00000  Uiso   1.00
H575   H     0.65334   0.12506   0.54063   0.00000  Uiso   1.00
O287   O     0.64011   0.12494   0.51402   0.00000  Uiso   1.00
O288   O     0.61149   0.12478   0.51402   0.00000  Uiso   1.00
H576   H     0.59827   0.12476   0.54063   0.00000  Uiso   1.00
Ni36   Ni    0.62581   0.12516   0.62580   0.00000  Uiso   1.00
C1729  C     0.87456   0.31632   0.35850   0.00000  Uiso   1.00
C1730  C     0.87451   0.30282   0.36631   0.00000  Uiso   1.00
C1731  C     0.87453   0.30283   0.38213   0.00000  Uiso   1.00
C1732  C     0.87460   0.31635   0.38991   0.00000  Uiso   1.00
C1733  C     0.87465   0.32938   0.38170   0.00000  Uiso   1.00
C1734  C     0.87463   0.32937   0.36669   0.00000  Uiso   1.00
C1735  C     0.87469   0.34396   0.36240   0.00000  Uiso   1.00
N289   N     0.87474   0.35326   0.37419   0.00000  Uiso   1.00
C1736  C     0.87472   0.34397   0.38599   0.00000  Uiso   1.00
N290   N     0.87478   0.34825   0.40015   0.00000  Uiso   1.00
C1737  C     0.87486   0.36240   0.40442   0.00000  Uiso   1.00
N291   N     0.87489   0.37420   0.39513   0.00000  Uiso   1.00
C1738  C     0.87498   0.38600   0.40443   0.00000  Uiso   1.00
C1739  C     0.87501   0.38171   0.41902   0.00000  Uiso   1.00
C1740  C     0.87493   0.36669   0.41902   0.00000  Uiso   1.00
N292   N     0.87489   0.39513   0.37420   0.00000  Uiso   1.00
C1741  C     0.87498   0.40443   0.38600   0.00000  Uiso   1.00
N293   N     0.87503   0.40015   0.40015   0.00000  Uiso   1.00
C1742  C     0.87501   0.41902   0.38170   0.00000  Uiso   1.00
C1743  C     0.87492   0.41902   0.36669   0.00000  Uiso   1.00
C1744  C     0.87486   0.40442   0.36240   0.00000  Uiso   1.00
C1745  C     0.87491   0.35848   0.43205   0.00000  Uiso   1.00
C1746  C     0.87499   0.36628   0.44556   0.00000  Uiso   1.00
C1747  C     0.87507   0.38212   0.44556   0.00000  Uiso   1.00
C1748  C     0.87508   0.38992   0.43206   0.00000  Uiso   1.00
C1749  C     0.87491   0.43205   0.35848   0.00000  Uiso   1.00
C1750  C     0.87499   0.44556   0.36627   0.00000  Uiso   1.00
C1751  C     0.87507   0.44556   0.38212   0.00000  Uiso   1.00
C1752  C     0.87508   0.43206   0.38991   0.00000  Uiso   1.00
N294   N     0.87474   0.37419   0.35326   0.00000  Uiso   1.00
C1753  C     0.87472   0.38599   0.34397   0.00000  Uiso   1.00
N295   N     0.87477   0.40014   0.34825   0.00000  Uiso   1.00
C1754  C     0.87465   0.38170   0.32938   0.00000  Uiso   1.00
C1755  C     0.87463   0.36669   0.32937   0.00000  Uiso   1.00
C1756  C     0.87469   0.36239   0.34396   0.00000  Uiso   1.00
C1757  C     0.87456   0.35850   0.31632   0.00000  Uiso   1.00
C1758  C     0.87451   0.36631   0.30282   0.00000  Uiso   1.00
C1759  C     0.87452   0.38212   0.30283   0.00000  Uiso   1.00
C1760  C     0.87460   0.38991   0.31635   0.00000  Uiso   1.00
N296   N     0.87466   0.34824   0.34824   0.00000  Uiso   1.00
H577   H     0.87455   0.31664   0.34654   0.00000  Uiso   1.00
H578   H     0.87461   0.31668   0.40188   0.00000  Uiso   1.00
H579   H     0.87485   0.34652   0.43173   0.00000  Uiso   1.00
H580   H     0.87514   0.40188   0.43174   0.00000  Uiso   1.00
H581   H     0.87484   0.43173   0.34651   0.00000  Uiso   1.00
H582   H     0.87514   0.43174   0.40188   0.00000  Uiso   1.00
H583   H     0.87455   0.34653   0.31664   0.00000  Uiso   1.00
H584   H     0.87461   0.40188   0.31668   0.00000  Uiso   1.00
C1761  C     0.87444   0.35865   0.28934   0.00000  Uiso   1.00
C1762  C     0.87438   0.36644   0.27601   0.00000  Uiso   1.00
C1763  C     0.87439   0.38204   0.27603   0.00000  Uiso   1.00
C1764  C     0.87446   0.38980   0.28937   0.00000  Uiso   1.00
C1765  C     0.87444   0.28934   0.35866   0.00000  Uiso   1.00
C1766  C     0.87439   0.27601   0.36645   0.00000  Uiso   1.00
C1767  C     0.87440   0.27603   0.38205   0.00000  Uiso   1.00
C1768  C     0.87447   0.28937   0.38981   0.00000  Uiso   1.00
C1769  C     0.87497   0.35863   0.45907   0.00000  Uiso   1.00
C1770  C     0.87504   0.36661   0.47227   0.00000  Uiso   1.00
C1771  C     0.87512   0.38179   0.47228   0.00000  Uiso   1.00
C1772  C     0.87514   0.38977   0.45907   0.00000  Uiso   1.00
C1773  C     0.87497   0.45907   0.35862   0.00000  Uiso   1.00
C1774  C     0.87504   0.47227   0.36660   0.00000  Uiso   1.00
C1775  C     0.87512   0.47228   0.38178   0.00000  Uiso   1.00
C1776  C     0.87514   0.45907   0.38976   0.00000  Uiso   1.00
H585   H     0.87443   0.34668   0.28914   0.00000  Uiso   1.00
O289   O     0.87433   0.35888   0.26257   0.00000  Uiso   1.00
O290   O     0.87434   0.38964   0.26261   0.00000  Uiso   1.00
H586   H     0.87447   0.40178   0.28920   0.00000  Uiso   1.00
H587   H     0.87443   0.28914   0.34669   0.00000  Uiso   1.00
O291   O     0.87433   0.26257   0.35889   0.00000  Uiso   1.00
O292   O     0.87434   0.26262   0.38964   0.00000  Uiso   1.00
H588   H     0.87447   0.28920   0.40178   0.00000  Uiso   1.00
H589   H     0.87491   0.34666   0.45936   0.00000  Uiso   1.00
O293   O     0.87503   0.35989   0.48598   0.00000  Uiso   1.00
O294   O     0.87518   0.38851   0.48598   0.00000  Uiso   1.00
H590   H     0.87521   0.40174   0.45937   0.00000  Uiso   1.00
H591   H     0.87491   0.45936   0.34666   0.00000  Uiso   1.00
O295   O     0.87502   0.48597   0.35988   0.00000  Uiso   1.00
O296   O     0.87518   0.48598   0.38850   0.00000  Uiso   1.00
H592   H     0.87520   0.45937   0.40173   0.00000  Uiso   1.00
Ni37   Ni    0.87482   0.37420   0.37420   0.00000  Uiso   1.00
C1777  C     0.61004   0.87461   0.31637   0.00000  Uiso   1.00
C1778  C     0.61783   0.87454   0.30286   0.00000  Uiso   1.00
C1779  C     0.63364   0.87453   0.30284   0.00000  Uiso   1.00
C1780  C     0.64145   0.87458   0.31635   0.00000  Uiso   1.00
C1781  C     0.63326   0.87465   0.32940   0.00000  Uiso   1.00
C1782  C     0.61825   0.87467   0.32940   0.00000  Uiso   1.00
C1783  C     0.61396   0.87474   0.34399   0.00000  Uiso   1.00
N297   N     0.62576   0.87476   0.35328   0.00000  Uiso   1.00
C1784  C     0.63756   0.87471   0.34399   0.00000  Uiso   1.00
N298   N     0.65171   0.87468   0.34827   0.00000  Uiso   1.00
C1785  C     0.65599   0.87470   0.36242   0.00000  Uiso   1.00
N299   N     0.64670   0.87476   0.37422   0.00000  Uiso   1.00
C1786  C     0.65599   0.87473   0.38602   0.00000  Uiso   1.00
C1787  C     0.67058   0.87466   0.38173   0.00000  Uiso   1.00
C1788  C     0.67058   0.87464   0.36672   0.00000  Uiso   1.00
N300   N     0.62576   0.87491   0.39516   0.00000  Uiso   1.00
C1789  C     0.63756   0.87488   0.40445   0.00000  Uiso   1.00
N301   N     0.65171   0.87479   0.40017   0.00000  Uiso   1.00
C1790  C     0.63327   0.87495   0.41904   0.00000  Uiso   1.00
C1791  C     0.61826   0.87504   0.41904   0.00000  Uiso   1.00
C1792  C     0.61396   0.87501   0.40445   0.00000  Uiso   1.00
C1793  C     0.68363   0.87457   0.35853   0.00000  Uiso   1.00
C1794  C     0.69714   0.87451   0.36634   0.00000  Uiso   1.00
C1795  C     0.69712   0.87452   0.38216   0.00000  Uiso   1.00
C1796  C     0.68361   0.87460   0.38994   0.00000  Uiso   1.00
C1797  C     0.61005   0.87512   0.43208   0.00000  Uiso   1.00
C1798  C     0.61784   0.87511   0.44558   0.00000  Uiso   1.00
C1799  C     0.63369   0.87501   0.44558   0.00000  Uiso   1.00
C1800  C     0.64148   0.87493   0.43208   0.00000  Uiso   1.00
N302   N     0.60482   0.87492   0.37422   0.00000  Uiso   1.00
C1801  C     0.59553   0.87501   0.38602   0.00000  Uiso   1.00
N303   N     0.59981   0.87506   0.40017   0.00000  Uiso   1.00
C1802  C     0.58094   0.87504   0.38172   0.00000  Uiso   1.00
C1803  C     0.58094   0.87495   0.36671   0.00000  Uiso   1.00
C1804  C     0.59553   0.87488   0.36242   0.00000  Uiso   1.00
C1805  C     0.56790   0.87494   0.35850   0.00000  Uiso   1.00
C1806  C     0.55440   0.87502   0.36629   0.00000  Uiso   1.00
C1807  C     0.55440   0.87511   0.38214   0.00000  Uiso   1.00
C1808  C     0.56790   0.87512   0.38993   0.00000  Uiso   1.00
N304   N     0.59981   0.87479   0.34827   0.00000  Uiso   1.00
H593   H     0.59807   0.87463   0.31670   0.00000  Uiso   1.00
H594   H     0.65342   0.87457   0.31666   0.00000  Uiso   1.00
H595   H     0.68331   0.87455   0.34656   0.00000  Uiso   1.00
H596   H     0.68328   0.87461   0.40191   0.00000  Uiso   1.00
H597   H     0.59808   0.87518   0.43176   0.00000  Uiso   1.00
H598   H     0.65345   0.87486   0.43175   0.00000  Uiso   1.00
H599   H     0.56822   0.87487   0.34653   0.00000  Uiso   1.00
H600   H     0.56822   0.87518   0.40190   0.00000  Uiso   1.00
C1809  C     0.54089   0.87501   0.35864   0.00000  Uiso   1.00
C1810  C     0.52768   0.87508   0.36662   0.00000  Uiso   1.00
C1811  C     0.52768   0.87517   0.38180   0.00000  Uiso   1.00
C1812  C     0.54089   0.87518   0.38978   0.00000  Uiso   1.00
C1813  C     0.61014   0.87448   0.28939   0.00000  Uiso   1.00
C1814  C     0.61790   0.87441   0.27605   0.00000  Uiso   1.00
C1815  C     0.63351   0.87440   0.27604   0.00000  Uiso   1.00
C1816  C     0.64130   0.87446   0.28937   0.00000  Uiso   1.00
C1817  C     0.71062   0.87443   0.35868   0.00000  Uiso   1.00
C1818  C     0.72394   0.87437   0.36648   0.00000  Uiso   1.00
C1819  C     0.72393   0.87438   0.38208   0.00000  Uiso   1.00
C1820  C     0.71059   0.87445   0.38984   0.00000  Uiso   1.00
C1821  C     0.61020   0.87518   0.45909   0.00000  Uiso   1.00
C1822  C     0.61818   0.87516   0.47230   0.00000  Uiso   1.00
C1823  C     0.63337   0.87507   0.47230   0.00000  Uiso   1.00
C1824  C     0.64134   0.87500   0.45909   0.00000  Uiso   1.00
H601   H     0.54059   0.87494   0.34667   0.00000  Uiso   1.00
O297   O     0.51398   0.87506   0.35990   0.00000  Uiso   1.00
O298   O     0.51398   0.87523   0.38852   0.00000  Uiso   1.00
H602   H     0.54059   0.87525   0.40175   0.00000  Uiso   1.00
H603   H     0.59817   0.87448   0.28922   0.00000  Uiso   1.00
O299   O     0.61031   0.87435   0.26264   0.00000  Uiso   1.00
O300   O     0.64106   0.87435   0.26260   0.00000  Uiso   1.00
H604   H     0.65327   0.87445   0.28917   0.00000  Uiso   1.00
H605   H     0.71081   0.87443   0.34671   0.00000  Uiso   1.00
O301   O     0.73738   0.87431   0.35892   0.00000  Uiso   1.00
O302   O     0.73734   0.87431   0.38967   0.00000  Uiso   1.00
H606   H     0.71076   0.87445   0.40181   0.00000  Uiso   1.00
H607   H     0.59824   0.87525   0.45939   0.00000  Uiso   1.00
O303   O     0.61146   0.87522   0.48600   0.00000  Uiso   1.00
O304   O     0.64009   0.87506   0.48600   0.00000  Uiso   1.00
H608   H     0.65331   0.87493   0.45938   0.00000  Uiso   1.00
Ni38   Ni    0.62576   0.87484   0.37422   0.00000  Uiso   1.00
C1825  C     0.12507   0.56792   0.35853   0.00000  Uiso   1.00
C1826  C     0.12499   0.55442   0.36632   0.00000  Uiso   1.00
C1827  C     0.12490   0.55442   0.38217   0.00000  Uiso   1.00
C1828  C     0.12489   0.56792   0.38996   0.00000  Uiso   1.00
C1829  C     0.12497   0.58096   0.38175   0.00000  Uiso   1.00
C1830  C     0.12506   0.58096   0.36674   0.00000  Uiso   1.00
C1831  C     0.12513   0.59555   0.36245   0.00000  Uiso   1.00
N305   N     0.12509   0.60485   0.37425   0.00000  Uiso   1.00
C1832  C     0.12500   0.59555   0.38605   0.00000  Uiso   1.00
N306   N     0.12495   0.59983   0.40020   0.00000  Uiso   1.00
C1833  C     0.12500   0.61399   0.40448   0.00000  Uiso   1.00
N307   N     0.12509   0.62578   0.39518   0.00000  Uiso   1.00
C1834  C     0.12513   0.63758   0.40448   0.00000  Uiso   1.00
C1835  C     0.12506   0.63329   0.41907   0.00000  Uiso   1.00
C1836  C     0.12498   0.61828   0.41907   0.00000  Uiso   1.00
N308   N     0.12524   0.64672   0.37425   0.00000  Uiso   1.00
C1837  C     0.12527   0.65601   0.38605   0.00000  Uiso   1.00
N309   N     0.12521   0.65173   0.40020   0.00000  Uiso   1.00
C1838  C     0.12534   0.67060   0.38175   0.00000  Uiso   1.00
C1839  C     0.12535   0.67061   0.36675   0.00000  Uiso   1.00
C1840  C     0.12530   0.65601   0.36245   0.00000  Uiso   1.00
C1841  C     0.12490   0.61007   0.43211   0.00000  Uiso   1.00
C1842  C     0.12491   0.61787   0.44561   0.00000  Uiso   1.00
C1843  C     0.12499   0.63372   0.44561   0.00000  Uiso   1.00
C1844  C     0.12507   0.64151   0.43210   0.00000  Uiso   1.00
C1845  C     0.12542   0.68365   0.35856   0.00000  Uiso   1.00
C1846  C     0.12548   0.69716   0.36636   0.00000  Uiso   1.00
C1847  C     0.12546   0.69715   0.38218   0.00000  Uiso   1.00
C1848  C     0.12539   0.68364   0.38996   0.00000  Uiso   1.00
N310   N     0.12525   0.62578   0.35331   0.00000  Uiso   1.00
C1849  C     0.12530   0.63758   0.34402   0.00000  Uiso   1.00
N311   N     0.12533   0.65174   0.34829   0.00000  Uiso   1.00
C1850  C     0.12536   0.63328   0.32942   0.00000  Uiso   1.00
C1851  C     0.12534   0.61827   0.32943   0.00000  Uiso   1.00
C1852  C     0.12527   0.61398   0.34402   0.00000  Uiso   1.00
C1853  C     0.12540   0.61006   0.31639   0.00000  Uiso   1.00
C1854  C     0.12548   0.61785   0.30288   0.00000  Uiso   1.00
C1855  C     0.12549   0.63367   0.30287   0.00000  Uiso   1.00
C1856  C     0.12543   0.64147   0.31637   0.00000  Uiso   1.00
N312   N     0.12522   0.59983   0.34830   0.00000  Uiso   1.00
H609   H     0.12514   0.56825   0.34656   0.00000  Uiso   1.00
H610   H     0.12483   0.56825   0.40193   0.00000  Uiso   1.00
H611   H     0.12483   0.59811   0.43179   0.00000  Uiso   1.00
H612   H     0.12514   0.65347   0.43178   0.00000  Uiso   1.00
H613   H     0.12544   0.68334   0.34659   0.00000  Uiso   1.00
H614   H     0.12538   0.68330   0.40193   0.00000  Uiso   1.00
H615   H     0.12539   0.59810   0.31673   0.00000  Uiso   1.00
H616   H     0.12545   0.65344   0.31669   0.00000  Uiso   1.00
C1857  C     0.12555   0.61017   0.28942   0.00000  Uiso   1.00
C1858  C     0.12562   0.61792   0.27608   0.00000  Uiso   1.00
C1859  C     0.12562   0.63353   0.27606   0.00000  Uiso   1.00
C1860  C     0.12556   0.64132   0.28939   0.00000  Uiso   1.00
C1861  C     0.12501   0.54091   0.35867   0.00000  Uiso   1.00
C1862  C     0.12493   0.52770   0.36665   0.00000  Uiso   1.00
C1863  C     0.12485   0.52770   0.38183   0.00000  Uiso   1.00
C1864  C     0.12483   0.54091   0.38981   0.00000  Uiso   1.00
C1865  C     0.12483   0.61023   0.45912   0.00000  Uiso   1.00
C1866  C     0.12485   0.61821   0.47233   0.00000  Uiso   1.00
C1867  C     0.12494   0.63339   0.47233   0.00000  Uiso   1.00
C1868  C     0.12501   0.64136   0.45912   0.00000  Uiso   1.00
C1869  C     0.12554   0.71064   0.35871   0.00000  Uiso   1.00
C1870  C     0.12560   0.72397   0.36650   0.00000  Uiso   1.00
C1871  C     0.12559   0.72395   0.38210   0.00000  Uiso   1.00
C1872  C     0.12553   0.71061   0.38986   0.00000  Uiso   1.00
H617   H     0.12554   0.59819   0.28925   0.00000  Uiso   1.00
O305   O     0.12568   0.61033   0.26266   0.00000  Uiso   1.00
O306   O     0.12568   0.64108   0.26263   0.00000  Uiso   1.00
H618   H     0.12557   0.65329   0.28920   0.00000  Uiso   1.00
H619   H     0.12507   0.54062   0.34670   0.00000  Uiso   1.00
O307   O     0.12495   0.51400   0.35992   0.00000  Uiso   1.00
O308   O     0.12478   0.51400   0.38855   0.00000  Uiso   1.00
H620   H     0.12476   0.54061   0.40178   0.00000  Uiso   1.00
H621   H     0.12477   0.59826   0.45942   0.00000  Uiso   1.00
O309   O     0.12479   0.61149   0.48603   0.00000  Uiso   1.00
O310   O     0.12495   0.64011   0.48603   0.00000  Uiso   1.00
H622   H     0.12507   0.65333   0.45941   0.00000  Uiso   1.00
H623   H     0.12555   0.71083   0.34674   0.00000  Uiso   1.00
O311   O     0.12565   0.73740   0.35894   0.00000  Uiso   1.00
O312   O     0.12565   0.73737   0.38969   0.00000  Uiso   1.00
H624   H     0.12552   0.71078   0.40183   0.00000  Uiso   1.00
Ni39   Ni    0.12517   0.62578   0.37425   0.00000  Uiso   1.00
C1873  C     0.35852   0.12544   0.31636   0.00000  Uiso   1.00
C1874  C     0.36632   0.12550   0.30285   0.00000  Uiso   1.00
C1875  C     0.38214   0.12548   0.30287   0.00000  Uiso   1.00
C1876  C     0.38993   0.12540   0.31638   0.00000  Uiso   1.00
C1877  C     0.38172   0.12535   0.32941   0.00000  Uiso   1.00
C1878  C     0.36671   0.12537   0.32940   0.00000  Uiso   1.00
C1879  C     0.36242   0.12531   0.34400   0.00000  Uiso   1.00
N313   N     0.37422   0.12526   0.35329   0.00000  Uiso   1.00
C1880  C     0.38602   0.12528   0.34400   0.00000  Uiso   1.00
N314   N     0.40017   0.12523   0.34828   0.00000  Uiso   1.00
C1881  C     0.40445   0.12514   0.36243   0.00000  Uiso   1.00
N315   N     0.39516   0.12510   0.37423   0.00000  Uiso   1.00
C1882  C     0.40445   0.12501   0.38603   0.00000  Uiso   1.00
C1883  C     0.41904   0.12498   0.38174   0.00000  Uiso   1.00
C1884  C     0.41904   0.12507   0.36672   0.00000  Uiso   1.00
N316   N     0.37422   0.12511   0.39517   0.00000  Uiso   1.00
C1885  C     0.38602   0.12501   0.40446   0.00000  Uiso   1.00
N317   N     0.40018   0.12496   0.40018   0.00000  Uiso   1.00
C1886  C     0.38173   0.12499   0.41905   0.00000  Uiso   1.00
C1887  C     0.36672   0.12507   0.41905   0.00000  Uiso   1.00
C1888  C     0.36243   0.12514   0.40446   0.00000  Uiso   1.00
C1889  C     0.43208   0.12508   0.35851   0.00000  Uiso   1.00
C1890  C     0.44558   0.12499   0.36630   0.00000  Uiso   1.00
C1891  C     0.44558   0.12490   0.38215   0.00000  Uiso   1.00
C1892  C     0.43208   0.12490   0.38994   0.00000  Uiso   1.00
C1893  C     0.35851   0.12509   0.43209   0.00000  Uiso   1.00
C1894  C     0.36630   0.12501   0.44559   0.00000  Uiso   1.00
C1895  C     0.38215   0.12492   0.44559   0.00000  Uiso   1.00
C1896  C     0.38994   0.12491   0.43209   0.00000  Uiso   1.00
N318   N     0.35328   0.12526   0.37423   0.00000  Uiso   1.00
C1897  C     0.34400   0.12528   0.38603   0.00000  Uiso   1.00
N319   N     0.34828   0.12523   0.40018   0.00000  Uiso   1.00
C1898  C     0.32940   0.12536   0.38174   0.00000  Uiso   1.00
C1899  C     0.32940   0.12537   0.36673   0.00000  Uiso   1.00
C1900  C     0.34399   0.12532   0.36243   0.00000  Uiso   1.00
C1901  C     0.31635   0.12544   0.35854   0.00000  Uiso   1.00
C1902  C     0.30284   0.12550   0.36634   0.00000  Uiso   1.00
C1903  C     0.30286   0.12549   0.38216   0.00000  Uiso   1.00
C1904  C     0.31637   0.12541   0.38994   0.00000  Uiso   1.00
N320   N     0.34826   0.12534   0.34828   0.00000  Uiso   1.00
H625   H     0.34655   0.12546   0.31667   0.00000  Uiso   1.00
H626   H     0.40190   0.12539   0.31671   0.00000  Uiso   1.00
H627   H     0.43175   0.12515   0.34655   0.00000  Uiso   1.00
H628   H     0.43176   0.12483   0.40191   0.00000  Uiso   1.00
H629   H     0.34654   0.12516   0.43176   0.00000  Uiso   1.00
H630   H     0.40191   0.12484   0.43177   0.00000  Uiso   1.00
H631   H     0.31666   0.12546   0.34657   0.00000  Uiso   1.00
H632   H     0.31671   0.12540   0.40191   0.00000  Uiso   1.00
C1905  C     0.28936   0.12557   0.35869   0.00000  Uiso   1.00
C1906  C     0.27604   0.12562   0.36648   0.00000  Uiso   1.00
C1907  C     0.27606   0.12562   0.38208   0.00000  Uiso   1.00
C1908  C     0.28940   0.12555   0.38984   0.00000  Uiso   1.00
C1909  C     0.35867   0.12556   0.28937   0.00000  Uiso   1.00
C1910  C     0.36646   0.12562   0.27605   0.00000  Uiso   1.00
C1911  C     0.38206   0.12561   0.27606   0.00000  Uiso   1.00
C1912  C     0.38982   0.12554   0.28940   0.00000  Uiso   1.00
C1913  C     0.45909   0.12501   0.35866   0.00000  Uiso   1.00
C1914  C     0.47230   0.12493   0.36663   0.00000  Uiso   1.00
C1915  C     0.47230   0.12484   0.38182   0.00000  Uiso   1.00
C1916  C     0.45909   0.12483   0.38980   0.00000  Uiso   1.00
C1917  C     0.35866   0.12502   0.45910   0.00000  Uiso   1.00
C1918  C     0.36664   0.12495   0.47231   0.00000  Uiso   1.00
C1919  C     0.38182   0.12486   0.47231   0.00000  Uiso   1.00
C1920  C     0.38980   0.12484   0.45910   0.00000  Uiso   1.00
H633   H     0.28916   0.12557   0.34672   0.00000  Uiso   1.00
O313   O     0.26260   0.12568   0.35892   0.00000  Uiso   1.00
O314   O     0.26264   0.12568   0.38967   0.00000  Uiso   1.00
H634   H     0.28923   0.12555   0.40181   0.00000  Uiso   1.00
H635   H     0.34670   0.12557   0.28918   0.00000  Uiso   1.00
O315   O     0.35890   0.12567   0.26261   0.00000  Uiso   1.00
O316   O     0.38965   0.12567   0.26265   0.00000  Uiso   1.00
H636   H     0.40179   0.12554   0.28923   0.00000  Uiso   1.00
H637   H     0.45938   0.12507   0.34669   0.00000  Uiso   1.00
O317   O     0.48600   0.12494   0.35992   0.00000  Uiso   1.00
O318   O     0.48600   0.12478   0.38854   0.00000  Uiso   1.00
H638   H     0.45939   0.12476   0.40176   0.00000  Uiso   1.00
H639   H     0.34669   0.12509   0.45940   0.00000  Uiso   1.00
O319   O     0.35992   0.12497   0.48601   0.00000  Uiso   1.00
O320   O     0.38854   0.12480   0.48601   0.00000  Uiso   1.00
H640   H     0.40176   0.12477   0.45940   0.00000  Uiso   1.00
Ni40   Ni    0.37422   0.12518   0.37423   0.00000  Uiso   1.00
C1921  C     0.64149   0.87458   0.68365   0.00000  Uiso   1.00
C1922  C     0.63369   0.87452   0.69715   0.00000  Uiso   1.00
C1923  C     0.61787   0.87453   0.69714   0.00000  Uiso   1.00
C1924  C     0.61008   0.87461   0.68363   0.00000  Uiso   1.00
C1925  C     0.61829   0.87467   0.67059   0.00000  Uiso   1.00
C1926  C     0.63330   0.87465   0.67060   0.00000  Uiso   1.00
C1927  C     0.63759   0.87471   0.65601   0.00000  Uiso   1.00
N321   N     0.62579   0.87476   0.64671   0.00000  Uiso   1.00
C1928  C     0.61400   0.87474   0.65600   0.00000  Uiso   1.00
N322   N     0.59984   0.87479   0.65173   0.00000  Uiso   1.00
C1929  C     0.59556   0.87488   0.63757   0.00000  Uiso   1.00
N323   N     0.60485   0.87492   0.62578   0.00000  Uiso   1.00
C1930  C     0.59556   0.87502   0.61398   0.00000  Uiso   1.00
C1931  C     0.58097   0.87504   0.61827   0.00000  Uiso   1.00
C1932  C     0.58097   0.87496   0.63328   0.00000  Uiso   1.00
N324   N     0.62579   0.87492   0.60484   0.00000  Uiso   1.00
C1933  C     0.61399   0.87502   0.59555   0.00000  Uiso   1.00
N325   N     0.59983   0.87507   0.59983   0.00000  Uiso   1.00
C1934  C     0.61828   0.87504   0.58096   0.00000  Uiso   1.00
C1935  C     0.63329   0.87495   0.58096   0.00000  Uiso   1.00
C1936  C     0.63758   0.87488   0.59555   0.00000  Uiso   1.00
C1937  C     0.56793   0.87494   0.64149   0.00000  Uiso   1.00
C1938  C     0.55443   0.87502   0.63370   0.00000  Uiso   1.00
C1939  C     0.55443   0.87511   0.61785   0.00000  Uiso   1.00
C1940  C     0.56793   0.87512   0.61006   0.00000  Uiso   1.00
C1941  C     0.64150   0.87494   0.56792   0.00000  Uiso   1.00
C1942  C     0.63371   0.87502   0.55442   0.00000  Uiso   1.00
C1943  C     0.61786   0.87511   0.55442   0.00000  Uiso   1.00
C1944  C     0.61007   0.87512   0.56792   0.00000  Uiso   1.00
N326   N     0.64673   0.87476   0.62578   0.00000  Uiso   1.00
C1945  C     0.65601   0.87474   0.61398   0.00000  Uiso   1.00
N327   N     0.65174   0.87479   0.59983   0.00000  Uiso   1.00
C1946  C     0.67061   0.87467   0.61827   0.00000  Uiso   1.00
C1947  C     0.67061   0.87465   0.63328   0.00000  Uiso   1.00
C1948  C     0.65602   0.87471   0.63758   0.00000  Uiso   1.00
C1949  C     0.68366   0.87458   0.64147   0.00000  Uiso   1.00
C1950  C     0.69717   0.87452   0.63366   0.00000  Uiso   1.00
C1951  C     0.69715   0.87453   0.61785   0.00000  Uiso   1.00
C1952  C     0.68364   0.87461   0.61006   0.00000  Uiso   1.00
N328   N     0.65175   0.87468   0.65173   0.00000  Uiso   1.00
H641   H     0.65346   0.87456   0.68333   0.00000  Uiso   1.00
H642   H     0.59811   0.87462   0.68330   0.00000  Uiso   1.00
H643   H     0.56826   0.87487   0.65346   0.00000  Uiso   1.00
H644   H     0.56825   0.87519   0.59809   0.00000  Uiso   1.00
H645   H     0.65347   0.87487   0.56824   0.00000  Uiso   1.00
H646   H     0.59810   0.87519   0.56824   0.00000  Uiso   1.00
H647   H     0.68335   0.87456   0.65344   0.00000  Uiso   1.00
H648   H     0.68330   0.87462   0.59809   0.00000  Uiso   1.00
C1953  C     0.71065   0.87445   0.64132   0.00000  Uiso   1.00
C1954  C     0.72397   0.87439   0.63353   0.00000  Uiso   1.00
C1955  C     0.72395   0.87440   0.61792   0.00000  Uiso   1.00
C1956  C     0.71061   0.87447   0.61017   0.00000  Uiso   1.00
C1957  C     0.64134   0.87445   0.71063   0.00000  Uiso   1.00
C1958  C     0.63355   0.87439   0.72396   0.00000  Uiso   1.00
C1959  C     0.61795   0.87440   0.72394   0.00000  Uiso   1.00
C1960  C     0.61019   0.87447   0.71060   0.00000  Uiso   1.00
C1961  C     0.54092   0.87500   0.64135   0.00000  Uiso   1.00
C1962  C     0.52771   0.87508   0.63337   0.00000  Uiso   1.00
C1963  C     0.52771   0.87517   0.61819   0.00000  Uiso   1.00
C1964  C     0.54092   0.87519   0.61021   0.00000  Uiso   1.00
C1965  C     0.64135   0.87500   0.54091   0.00000  Uiso   1.00
C1966  C     0.63337   0.87508   0.52770   0.00000  Uiso   1.00
C1967  C     0.61819   0.87516   0.52770   0.00000  Uiso   1.00
C1968  C     0.61021   0.87519   0.54090   0.00000  Uiso   1.00
H649   H     0.71085   0.87444   0.65329   0.00000  Uiso   1.00
O321   O     0.73741   0.87434   0.64109   0.00000  Uiso   1.00
O322   O     0.73737   0.87434   0.61033   0.00000  Uiso   1.00
H650   H     0.71078   0.87447   0.59819   0.00000  Uiso   1.00
H651   H     0.65331   0.87444   0.71083   0.00000  Uiso   1.00
O323   O     0.64111   0.87434   0.73740   0.00000  Uiso   1.00
O324   O     0.61036   0.87434   0.73736   0.00000  Uiso   1.00
H652   H     0.59822   0.87448   0.71077   0.00000  Uiso   1.00
H653   H     0.54063   0.87493   0.65332   0.00000  Uiso   1.00
O325   O     0.51401   0.87506   0.64009   0.00000  Uiso   1.00
O326   O     0.51401   0.87523   0.61147   0.00000  Uiso   1.00
H654   H     0.54062   0.87526   0.59824   0.00000  Uiso   1.00
H655   H     0.65332   0.87493   0.54061   0.00000  Uiso   1.00
O327   O     0.64009   0.87506   0.51400   0.00000  Uiso   1.00
O328   O     0.61147   0.87523   0.51400   0.00000  Uiso   1.00
H656   H     0.59825   0.87526   0.54061   0.00000  Uiso   1.00
Ni41   Ni    0.62579   0.87485   0.62578   0.00000  Uiso   1.00
C1969  C     0.61006   0.12539   0.31639   0.00000  Uiso   1.00
C1970  C     0.61784   0.12547   0.30288   0.00000  Uiso   1.00
C1971  C     0.63366   0.12548   0.30286   0.00000  Uiso   1.00
C1972  C     0.64146   0.12542   0.31637   0.00000  Uiso   1.00
C1973  C     0.63327   0.12535   0.32942   0.00000  Uiso   1.00
C1974  C     0.61827   0.12533   0.32942   0.00000  Uiso   1.00
C1975  C     0.61398   0.12526   0.34401   0.00000  Uiso   1.00
N329   N     0.62578   0.12523   0.35330   0.00000  Uiso   1.00
C1976  C     0.63757   0.12529   0.34401   0.00000  Uiso   1.00
N330   N     0.65173   0.12531   0.34829   0.00000  Uiso   1.00
C1977  C     0.65601   0.12528   0.36244   0.00000  Uiso   1.00
N331   N     0.64671   0.12523   0.37424   0.00000  Uiso   1.00
C1978  C     0.65601   0.12525   0.38604   0.00000  Uiso   1.00
C1979  C     0.67060   0.12532   0.38175   0.00000  Uiso   1.00
C1980  C     0.67060   0.12533   0.36674   0.00000  Uiso   1.00
N332   N     0.62578   0.12507   0.39518   0.00000  Uiso   1.00
C1981  C     0.63758   0.12511   0.40447   0.00000  Uiso   1.00
N333   N     0.65173   0.12519   0.40019   0.00000  Uiso   1.00
C1982  C     0.63329   0.12504   0.41906   0.00000  Uiso   1.00
C1983  C     0.61828   0.12496   0.41906   0.00000  Uiso   1.00
C1984  C     0.61398   0.12498   0.40447   0.00000  Uiso   1.00
C1985  C     0.68365   0.12540   0.35855   0.00000  Uiso   1.00
C1986  C     0.69715   0.12546   0.36635   0.00000  Uiso   1.00
C1987  C     0.69714   0.12544   0.38217   0.00000  Uiso   1.00
C1988  C     0.68363   0.12537   0.38995   0.00000  Uiso   1.00
C1989  C     0.61007   0.12488   0.43210   0.00000  Uiso   1.00
C1990  C     0.61787   0.12489   0.44560   0.00000  Uiso   1.00
C1991  C     0.63371   0.12498   0.44560   0.00000  Uiso   1.00
C1992  C     0.64150   0.12505   0.43210   0.00000  Uiso   1.00
N334   N     0.60484   0.12508   0.37424   0.00000  Uiso   1.00
C1993  C     0.59555   0.12498   0.38604   0.00000  Uiso   1.00
N335   N     0.59983   0.12494   0.40019   0.00000  Uiso   1.00
C1994  C     0.58096   0.12496   0.38175   0.00000  Uiso   1.00
C1995  C     0.58096   0.12505   0.36673   0.00000  Uiso   1.00
C1996  C     0.59555   0.12511   0.36244   0.00000  Uiso   1.00
C1997  C     0.56792   0.12506   0.35852   0.00000  Uiso   1.00
C1998  C     0.55442   0.12498   0.36631   0.00000  Uiso   1.00
C1999  C     0.55442   0.12489   0.38216   0.00000  Uiso   1.00
C2000  C     0.56792   0.12488   0.38995   0.00000  Uiso   1.00
N336   N     0.59983   0.12520   0.34829   0.00000  Uiso   1.00
H657   H     0.59809   0.12538   0.31672   0.00000  Uiso   1.00
H658   H     0.65343   0.12543   0.31668   0.00000  Uiso   1.00
H659   H     0.68333   0.12542   0.34658   0.00000  Uiso   1.00
H660   H     0.68330   0.12536   0.40192   0.00000  Uiso   1.00
H661   H     0.59810   0.12482   0.43178   0.00000  Uiso   1.00
H662   H     0.65347   0.12512   0.43177   0.00000  Uiso   1.00
H663   H     0.56824   0.12513   0.34656   0.00000  Uiso   1.00
H664   H     0.56824   0.12481   0.40192   0.00000  Uiso   1.00
C2001  C     0.54091   0.12499   0.35866   0.00000  Uiso   1.00
C2002  C     0.52770   0.12492   0.36664   0.00000  Uiso   1.00
C2003  C     0.52770   0.12484   0.38182   0.00000  Uiso   1.00
C2004  C     0.54091   0.12482   0.38980   0.00000  Uiso   1.00
C2005  C     0.61016   0.12554   0.28942   0.00000  Uiso   1.00
C2006  C     0.61791   0.12561   0.27608   0.00000  Uiso   1.00
C2007  C     0.63352   0.12562   0.27606   0.00000  Uiso   1.00
C2008  C     0.64131   0.12555   0.28938   0.00000  Uiso   1.00
C2009  C     0.71063   0.12552   0.35870   0.00000  Uiso   1.00
C2010  C     0.72396   0.12558   0.36649   0.00000  Uiso   1.00
C2011  C     0.72394   0.12557   0.38209   0.00000  Uiso   1.00
C2012  C     0.71061   0.12551   0.38985   0.00000  Uiso   1.00
C2013  C     0.61022   0.12482   0.45911   0.00000  Uiso   1.00
C2014  C     0.61820   0.12484   0.47232   0.00000  Uiso   1.00
C2015  C     0.63339   0.12492   0.47232   0.00000  Uiso   1.00
C2016  C     0.64136   0.12499   0.45911   0.00000  Uiso   1.00
H665   H     0.54061   0.12506   0.34670   0.00000  Uiso   1.00
O329   O     0.51400   0.12494   0.35992   0.00000  Uiso   1.00
O330   O     0.51400   0.12477   0.38854   0.00000  Uiso   1.00
H666   H     0.54061   0.12475   0.40177   0.00000  Uiso   1.00
H667   H     0.59818   0.12553   0.28924   0.00000  Uiso   1.00
O331   O     0.61032   0.12567   0.26266   0.00000  Uiso   1.00
O332   O     0.64107   0.12567   0.26262   0.00000  Uiso   1.00
H668   H     0.65328   0.12556   0.28919   0.00000  Uiso   1.00
H669   H     0.71083   0.12553   0.34673   0.00000  Uiso   1.00
O333   O     0.73740   0.12563   0.35893   0.00000  Uiso   1.00
O334   O     0.73736   0.12563   0.38968   0.00000  Uiso   1.00
H670   H     0.71078   0.12550   0.40182   0.00000  Uiso   1.00
H671   H     0.59826   0.12475   0.45941   0.00000  Uiso   1.00
O335   O     0.61149   0.12478   0.48602   0.00000  Uiso   1.00
O336   O     0.64011   0.12494   0.48602   0.00000  Uiso   1.00
H672   H     0.65333   0.12506   0.45941   0.00000  Uiso   1.00
Ni42   Ni    0.62578   0.12515   0.37424   0.00000  Uiso   1.00
C2017  C     0.87459   0.68361   0.38992   0.00000  Uiso   1.00
C2018  C     0.87451   0.69712   0.38213   0.00000  Uiso   1.00
C2019  C     0.87450   0.69713   0.36632   0.00000  Uiso   1.00
C2020  C     0.87456   0.68363   0.35851   0.00000  Uiso   1.00
C2021  C     0.87463   0.67058   0.36670   0.00000  Uiso   1.00
C2022  C     0.87465   0.67057   0.38171   0.00000  Uiso   1.00
C2023  C     0.87472   0.65598   0.38600   0.00000  Uiso   1.00
N337   N     0.87474   0.64669   0.37420   0.00000  Uiso   1.00
C2024  C     0.87469   0.65598   0.36240   0.00000  Uiso   1.00
N338   N     0.87466   0.65171   0.34825   0.00000  Uiso   1.00
C2025  C     0.87469   0.63755   0.34397   0.00000  Uiso   1.00
N339   N     0.87474   0.62575   0.35326   0.00000  Uiso   1.00
C2026  C     0.87472   0.61395   0.34397   0.00000  Uiso   1.00
C2027  C     0.87465   0.61824   0.32938   0.00000  Uiso   1.00
C2028  C     0.87464   0.63325   0.32938   0.00000  Uiso   1.00
N340   N     0.87489   0.60482   0.37420   0.00000  Uiso   1.00
C2029  C     0.87486   0.59552   0.36240   0.00000  Uiso   1.00
N341   N     0.87477   0.59980   0.34825   0.00000  Uiso   1.00
C2030  C     0.87492   0.58093   0.36669   0.00000  Uiso   1.00
C2031  C     0.87501   0.58093   0.38170   0.00000  Uiso   1.00
C2032  C     0.87499   0.59553   0.38600   0.00000  Uiso   1.00
C2033  C     0.87457   0.64144   0.31633   0.00000  Uiso   1.00
C2034  C     0.87452   0.63364   0.30282   0.00000  Uiso   1.00
C2035  C     0.87453   0.61782   0.30284   0.00000  Uiso   1.00
C2036  C     0.87460   0.61004   0.31635   0.00000  Uiso   1.00
C2037  C     0.87508   0.56789   0.38991   0.00000  Uiso   1.00
C2038  C     0.87507   0.55439   0.38212   0.00000  Uiso   1.00
C2039  C     0.87499   0.55439   0.36627   0.00000  Uiso   1.00
C2040  C     0.87491   0.56790   0.35848   0.00000  Uiso   1.00
N342   N     0.87489   0.62575   0.39514   0.00000  Uiso   1.00
C2041  C     0.87499   0.61396   0.40443   0.00000  Uiso   1.00
N343   N     0.87503   0.59980   0.40015   0.00000  Uiso   1.00
C2042  C     0.87501   0.61825   0.41902   0.00000  Uiso   1.00
C2043  C     0.87492   0.63326   0.41902   0.00000  Uiso   1.00
C2044  C     0.87485   0.63755   0.40443   0.00000  Uiso   1.00
C2045  C     0.87491   0.64148   0.43206   0.00000  Uiso   1.00
C2046  C     0.87498   0.63369   0.44556   0.00000  Uiso   1.00
C2047  C     0.87507   0.61784   0.44556   0.00000  Uiso   1.00
C2048  C     0.87509   0.61004   0.43206   0.00000  Uiso   1.00
N344   N     0.87477   0.65170   0.40015   0.00000  Uiso   1.00
H673   H     0.87460   0.68327   0.40188   0.00000  Uiso   1.00
H674   H     0.87455   0.68331   0.34654   0.00000  Uiso   1.00
H675   H     0.87456   0.65341   0.31664   0.00000  Uiso   1.00
H676   H     0.87461   0.59807   0.31668   0.00000  Uiso   1.00
H677   H     0.87515   0.56822   0.40188   0.00000  Uiso   1.00
H678   H     0.87484   0.56822   0.34651   0.00000  Uiso   1.00
H679   H     0.87484   0.65344   0.43173   0.00000  Uiso   1.00
H680   H     0.87515   0.59808   0.43174   0.00000  Uiso   1.00
C2049  C     0.87497   0.64133   0.45907   0.00000  Uiso   1.00
C2050  C     0.87504   0.63336   0.47228   0.00000  Uiso   1.00
C2051  C     0.87512   0.61818   0.47228   0.00000  Uiso   1.00
C2052  C     0.87514   0.61020   0.45907   0.00000  Uiso   1.00
C2053  C     0.87444   0.71058   0.38982   0.00000  Uiso   1.00
C2054  C     0.87437   0.72392   0.38206   0.00000  Uiso   1.00
C2055  C     0.87437   0.72394   0.36645   0.00000  Uiso   1.00
C2056  C     0.87443   0.71061   0.35866   0.00000  Uiso   1.00
C2057  C     0.87445   0.64129   0.28934   0.00000  Uiso   1.00
C2058  C     0.87440   0.63350   0.27602   0.00000  Uiso   1.00
C2059  C     0.87440   0.61790   0.27603   0.00000  Uiso   1.00
C2060  C     0.87447   0.61014   0.28937   0.00000  Uiso   1.00
C2061  C     0.87514   0.54088   0.38976   0.00000  Uiso   1.00
C2062  C     0.87512   0.52768   0.38178   0.00000  Uiso   1.00
C2063  C     0.87504   0.52768   0.36660   0.00000  Uiso   1.00
C2064  C     0.87497   0.54088   0.35862   0.00000  Uiso   1.00
H681   H     0.87490   0.65330   0.45936   0.00000  Uiso   1.00
O337   O     0.87502   0.64008   0.48598   0.00000  Uiso   1.00
O338   O     0.87518   0.61146   0.48598   0.00000  Uiso   1.00
H682   H     0.87521   0.59823   0.45937   0.00000  Uiso   1.00
H683   H     0.87445   0.71075   0.40179   0.00000  Uiso   1.00
O339   O     0.87432   0.73734   0.38965   0.00000  Uiso   1.00
O340   O     0.87431   0.73737   0.35890   0.00000  Uiso   1.00
H684   H     0.87442   0.71081   0.34669   0.00000  Uiso   1.00
H685   H     0.87445   0.65326   0.28915   0.00000  Uiso   1.00
O341   O     0.87435   0.64106   0.26258   0.00000  Uiso   1.00
O342   O     0.87435   0.61031   0.26262   0.00000  Uiso   1.00
H686   H     0.87447   0.59817   0.28920   0.00000  Uiso   1.00
H687   H     0.87521   0.54059   0.40173   0.00000  Uiso   1.00
O343   O     0.87518   0.51397   0.38850   0.00000  Uiso   1.00
O344   O     0.87502   0.51397   0.35988   0.00000  Uiso   1.00
H688   H     0.87491   0.54059   0.34666   0.00000  Uiso   1.00
Ni43   Ni    0.87482   0.62575   0.37420   0.00000  Uiso   1.00
C2065  C     0.38992   0.87514   0.43207   0.00000  Uiso   1.00
C2066  C     0.38213   0.87513   0.44557   0.00000  Uiso   1.00
C2067  C     0.36628   0.87504   0.44557   0.00000  Uiso   1.00
C2068  C     0.35849   0.87497   0.43207   0.00000  Uiso   1.00
C2069  C     0.36670   0.87498   0.41903   0.00000  Uiso   1.00
C2070  C     0.38171   0.87506   0.41903   0.00000  Uiso   1.00
C2071  C     0.38600   0.87504   0.40444   0.00000  Uiso   1.00
N345   N     0.37421   0.87495   0.39514   0.00000  Uiso   1.00
C2072  C     0.36241   0.87491   0.40444   0.00000  Uiso   1.00
N346   N     0.34826   0.87482   0.40016   0.00000  Uiso   1.00
C2073  C     0.34398   0.87477   0.38601   0.00000  Uiso   1.00
N347   N     0.35327   0.87479   0.37421   0.00000  Uiso   1.00
C2074  C     0.34397   0.87473   0.36241   0.00000  Uiso   1.00
C2075  C     0.32938   0.87467   0.36671   0.00000  Uiso   1.00
C2076  C     0.32939   0.87469   0.38171   0.00000  Uiso   1.00
N348   N     0.37420   0.87479   0.35327   0.00000  Uiso   1.00
C2077  C     0.36240   0.87473   0.34398   0.00000  Uiso   1.00
N349   N     0.34825   0.87470   0.34825   0.00000  Uiso   1.00
C2078  C     0.36670   0.87467   0.32938   0.00000  Uiso   1.00
C2079  C     0.38171   0.87469   0.32939   0.00000  Uiso   1.00
C2080  C     0.38600   0.87476   0.34398   0.00000  Uiso   1.00
C2081  C     0.31635   0.87464   0.38992   0.00000  Uiso   1.00
C2082  C     0.30284   0.87456   0.38214   0.00000  Uiso   1.00
C2083  C     0.30282   0.87454   0.36632   0.00000  Uiso   1.00
C2084  C     0.31633   0.87460   0.35852   0.00000  Uiso   1.00
C2085  C     0.38991   0.87464   0.31636   0.00000  Uiso   1.00
C2086  C     0.38213   0.87455   0.30285   0.00000  Uiso   1.00
C2087  C     0.36631   0.87454   0.30283   0.00000  Uiso   1.00
C2088  C     0.35851   0.87459   0.31633   0.00000  Uiso   1.00
N350   N     0.39514   0.87494   0.37421   0.00000  Uiso   1.00
C2089  C     0.40443   0.87491   0.36241   0.00000  Uiso   1.00
N351   N     0.40015   0.87482   0.34826   0.00000  Uiso   1.00
C2090  C     0.41902   0.87498   0.36670   0.00000  Uiso   1.00
C2091  C     0.41903   0.87506   0.38172   0.00000  Uiso   1.00
C2092  C     0.40443   0.87504   0.38601   0.00000  Uiso   1.00
C2093  C     0.43206   0.87514   0.38992   0.00000  Uiso   1.00
C2094  C     0.44556   0.87513   0.38213   0.00000  Uiso   1.00
C2095  C     0.44556   0.87504   0.36628   0.00000  Uiso   1.00
C2096  C     0.43206   0.87496   0.35849   0.00000  Uiso   1.00
N352   N     0.40016   0.87508   0.40016   0.00000  Uiso   1.00
H689   H     0.40189   0.87520   0.43175   0.00000  Uiso   1.00
H690   H     0.34652   0.87490   0.43174   0.00000  Uiso   1.00
H691   H     0.31669   0.87465   0.40189   0.00000  Uiso   1.00
H692   H     0.31664   0.87458   0.34655   0.00000  Uiso   1.00
H693   H     0.40188   0.87465   0.31669   0.00000  Uiso   1.00
H694   H     0.34654   0.87458   0.31665   0.00000  Uiso   1.00
H695   H     0.43174   0.87520   0.40189   0.00000  Uiso   1.00
H696   H     0.43173   0.87489   0.34653   0.00000  Uiso   1.00
C2097  C     0.45908   0.87520   0.38978   0.00000  Uiso   1.00
C2098  C     0.47228   0.87517   0.38180   0.00000  Uiso   1.00
C2099  C     0.47228   0.87509   0.36661   0.00000  Uiso   1.00
C2100  C     0.45907   0.87502   0.35864   0.00000  Uiso   1.00
C2101  C     0.38978   0.87520   0.45908   0.00000  Uiso   1.00
C2102  C     0.38180   0.87518   0.47229   0.00000  Uiso   1.00
C2103  C     0.36662   0.87510   0.47229   0.00000  Uiso   1.00
C2104  C     0.35864   0.87503   0.45908   0.00000  Uiso   1.00
C2105  C     0.28938   0.87450   0.38982   0.00000  Uiso   1.00
C2106  C     0.27604   0.87442   0.38206   0.00000  Uiso   1.00
C2107  C     0.27602   0.87441   0.36646   0.00000  Uiso   1.00
C2108  C     0.28934   0.87447   0.35867   0.00000  Uiso   1.00
C2109  C     0.38981   0.87449   0.28938   0.00000  Uiso   1.00
C2110  C     0.38205   0.87442   0.27604   0.00000  Uiso   1.00
C2111  C     0.36645   0.87441   0.27602   0.00000  Uiso   1.00
C2112  C     0.35866   0.87446   0.28935   0.00000  Uiso   1.00
H697   H     0.45937   0.87526   0.40174   0.00000  Uiso   1.00
O345   O     0.48598   0.87523   0.38852   0.00000  Uiso   1.00
O346   O     0.48598   0.87507   0.35989   0.00000  Uiso   1.00
H698   H     0.45937   0.87495   0.34667   0.00000  Uiso   1.00
H699   H     0.40174   0.87527   0.45938   0.00000  Uiso   1.00
O347   O     0.38852   0.87524   0.48599   0.00000  Uiso   1.00
O348   O     0.35990   0.87508   0.48599   0.00000  Uiso   1.00
H700   H     0.34667   0.87496   0.45937   0.00000  Uiso   1.00
H701   H     0.28921   0.87451   0.40179   0.00000  Uiso   1.00
O349   O     0.26262   0.87437   0.38965   0.00000  Uiso   1.00
O350   O     0.26258   0.87436   0.35890   0.00000  Uiso   1.00
H702   H     0.28915   0.87446   0.34670   0.00000  Uiso   1.00
H703   H     0.40178   0.87450   0.28921   0.00000  Uiso   1.00
O351   O     0.38964   0.87436   0.26263   0.00000  Uiso   1.00
O352   O     0.35889   0.87435   0.26258   0.00000  Uiso   1.00
H704   H     0.34669   0.87445   0.28915   0.00000  Uiso   1.00
Ni44   Ni    0.37420   0.87487   0.37421   0.00000  Uiso   1.00
C2113  C     0.12489   0.43209   0.38995   0.00000  Uiso   1.00
C2114  C     0.12490   0.44559   0.38216   0.00000  Uiso   1.00
C2115  C     0.12499   0.44559   0.36631   0.00000  Uiso   1.00
C2116  C     0.12507   0.43208   0.35852   0.00000  Uiso   1.00
C2117  C     0.12506   0.41905   0.36673   0.00000  Uiso   1.00
C2118  C     0.12497   0.41905   0.38174   0.00000  Uiso   1.00
C2119  C     0.12500   0.40446   0.38603   0.00000  Uiso   1.00
N353   N     0.12509   0.39516   0.37424   0.00000  Uiso   1.00
C2120  C     0.12513   0.40445   0.36244   0.00000  Uiso   1.00
N354   N     0.12522   0.40017   0.34829   0.00000  Uiso   1.00
C2121  C     0.12527   0.38602   0.34401   0.00000  Uiso   1.00
N355   N     0.12525   0.37422   0.35330   0.00000  Uiso   1.00
C2122  C     0.12530   0.36242   0.34400   0.00000  Uiso   1.00
C2123  C     0.12536   0.36672   0.32941   0.00000  Uiso   1.00
C2124  C     0.12534   0.38173   0.32942   0.00000  Uiso   1.00
N356   N     0.12525   0.35329   0.37423   0.00000  Uiso   1.00
C2125  C     0.12531   0.34399   0.36243   0.00000  Uiso   1.00
N357   N     0.12533   0.34827   0.34828   0.00000  Uiso   1.00
C2126  C     0.12536   0.32940   0.36673   0.00000  Uiso   1.00
C2127  C     0.12535   0.32941   0.38174   0.00000  Uiso   1.00
C2128  C     0.12527   0.34400   0.38603   0.00000  Uiso   1.00
C2129  C     0.12540   0.38994   0.31638   0.00000  Uiso   1.00
C2130  C     0.12547   0.38215   0.30287   0.00000  Uiso   1.00
C2131  C     0.12548   0.36633   0.30286   0.00000  Uiso   1.00
C2132  C     0.12543   0.35853   0.31636   0.00000  Uiso   1.00
C2133  C     0.12540   0.31637   0.38995   0.00000  Uiso   1.00
C2134  C     0.12548   0.30286   0.38216   0.00000  Uiso   1.00
C2135  C     0.12549   0.30285   0.36635   0.00000  Uiso   1.00
C2136  C     0.12543   0.31635   0.35854   0.00000  Uiso   1.00
N358   N     0.12510   0.37423   0.39517   0.00000  Uiso   1.00
C2137  C     0.12513   0.36243   0.40446   0.00000  Uiso   1.00
N359   N     0.12522   0.34828   0.40018   0.00000  Uiso   1.00
C2138  C     0.12506   0.36672   0.41905   0.00000  Uiso   1.00
C2139  C     0.12498   0.38174   0.41906   0.00000  Uiso   1.00
C2140  C     0.12500   0.38603   0.40446   0.00000  Uiso   1.00
C2141  C     0.12489   0.38994   0.43209   0.00000  Uiso   1.00
C2142  C     0.12490   0.38215   0.44559   0.00000  Uiso   1.00
C2143  C     0.12499   0.36630   0.44559   0.00000  Uiso   1.00
C2144  C     0.12507   0.35851   0.43209   0.00000  Uiso   1.00
N360   N     0.12495   0.40018   0.40019   0.00000  Uiso   1.00
H705   H     0.12483   0.43177   0.40192   0.00000  Uiso   1.00
H706   H     0.12514   0.43176   0.34655   0.00000  Uiso   1.00
H707   H     0.12538   0.40190   0.31672   0.00000  Uiso   1.00
H708   H     0.12544   0.34656   0.31668   0.00000  Uiso   1.00
H709   H     0.12539   0.31671   0.40191   0.00000  Uiso   1.00
H710   H     0.12545   0.31667   0.34657   0.00000  Uiso   1.00
H711   H     0.12483   0.40191   0.43177   0.00000  Uiso   1.00
H712   H     0.12515   0.34655   0.43177   0.00000  Uiso   1.00
C2145  C     0.12483   0.38980   0.45911   0.00000  Uiso   1.00
C2146  C     0.12485   0.38182   0.47231   0.00000  Uiso   1.00
C2147  C     0.12493   0.36664   0.47231   0.00000  Uiso   1.00
C2148  C     0.12501   0.35866   0.45910   0.00000  Uiso   1.00
C2149  C     0.12483   0.45910   0.38980   0.00000  Uiso   1.00
C2150  C     0.12485   0.47230   0.38183   0.00000  Uiso   1.00
C2151  C     0.12493   0.47230   0.36664   0.00000  Uiso   1.00
C2152  C     0.12501   0.45910   0.35866   0.00000  Uiso   1.00
C2153  C     0.12553   0.38983   0.28941   0.00000  Uiso   1.00
C2154  C     0.12560   0.38207   0.27607   0.00000  Uiso   1.00
C2155  C     0.12561   0.36647   0.27605   0.00000  Uiso   1.00
C2156  C     0.12555   0.35868   0.28938   0.00000  Uiso   1.00
C2157  C     0.12554   0.28940   0.38984   0.00000  Uiso   1.00
C2158  C     0.12561   0.27606   0.38208   0.00000  Uiso   1.00
C2159  C     0.12562   0.27604   0.36648   0.00000  Uiso   1.00
C2160  C     0.12556   0.28937   0.35869   0.00000  Uiso   1.00
H713   H     0.12476   0.40176   0.45940   0.00000  Uiso   1.00
O353   O     0.12478   0.38854   0.48601   0.00000  Uiso   1.00
O354   O     0.12495   0.35992   0.48601   0.00000  Uiso   1.00
H714   H     0.12508   0.34669   0.45940   0.00000  Uiso   1.00
H715   H     0.12476   0.45940   0.40177   0.00000  Uiso   1.00
O355   O     0.12478   0.48601   0.38855   0.00000  Uiso   1.00
O356   O     0.12495   0.48601   0.35992   0.00000  Uiso   1.00
H716   H     0.12508   0.45939   0.34670   0.00000  Uiso   1.00
H717   H     0.12553   0.40180   0.28924   0.00000  Uiso   1.00
O357   O     0.12566   0.38966   0.26265   0.00000  Uiso   1.00
O358   O     0.12566   0.35891   0.26261   0.00000  Uiso   1.00
H718   H     0.12556   0.34671   0.28918   0.00000  Uiso   1.00
H719   H     0.12554   0.28923   0.40182   0.00000  Uiso   1.00
O359   O     0.12567   0.26264   0.38968   0.00000  Uiso   1.00
O360   O     0.12567   0.26260   0.35892   0.00000  Uiso   1.00
H720   H     0.12556   0.28917   0.34672   0.00000  Uiso   1.00
Ni45   Ni    0.12517   0.37423   0.37423   0.00000  Uiso   1.00
C2161  C     0.35853   0.12509   0.56793   0.00000  Uiso   1.00
C2162  C     0.36632   0.12502   0.55443   0.00000  Uiso   1.00
C2163  C     0.38217   0.12492   0.55443   0.00000  Uiso   1.00
C2164  C     0.38996   0.12491   0.56793   0.00000  Uiso   1.00
C2165  C     0.38175   0.12499   0.58096   0.00000  Uiso   1.00
C2166  C     0.36674   0.12508   0.58096   0.00000  Uiso   1.00
C2167  C     0.36245   0.12515   0.59556   0.00000  Uiso   1.00
N361   N     0.37425   0.12511   0.60485   0.00000  Uiso   1.00
C2168  C     0.38605   0.12502   0.59556   0.00000  Uiso   1.00
N362   N     0.40020   0.12497   0.59984   0.00000  Uiso   1.00
C2169  C     0.40448   0.12501   0.61399   0.00000  Uiso   1.00
N363   N     0.39519   0.12511   0.62579   0.00000  Uiso   1.00
C2170  C     0.40448   0.12514   0.63759   0.00000  Uiso   1.00
C2171  C     0.41907   0.12507   0.63330   0.00000  Uiso   1.00
C2172  C     0.41907   0.12499   0.61828   0.00000  Uiso   1.00
N364   N     0.37425   0.12526   0.64672   0.00000  Uiso   1.00
C2173  C     0.38605   0.12528   0.65601   0.00000  Uiso   1.00
N365   N     0.40020   0.12523   0.65174   0.00000  Uiso   1.00
C2174  C     0.38176   0.12535   0.67060   0.00000  Uiso   1.00
C2175  C     0.36675   0.12537   0.67061   0.00000  Uiso   1.00
C2176  C     0.36245   0.12531   0.65602   0.00000  Uiso   1.00
C2177  C     0.43211   0.12491   0.61008   0.00000  Uiso   1.00
C2178  C     0.44561   0.12492   0.61787   0.00000  Uiso   1.00
C2179  C     0.44561   0.12501   0.63372   0.00000  Uiso   1.00
C2180  C     0.43211   0.12508   0.64151   0.00000  Uiso   1.00
C2181  C     0.35856   0.12543   0.68366   0.00000  Uiso   1.00
C2182  C     0.36637   0.12549   0.69716   0.00000  Uiso   1.00
C2183  C     0.38218   0.12547   0.69715   0.00000  Uiso   1.00
C2184  C     0.38997   0.12540   0.68364   0.00000  Uiso   1.00
N366   N     0.35331   0.12526   0.62579   0.00000  Uiso   1.00
C2185  C     0.34402   0.12532   0.63758   0.00000  Uiso   1.00
N367   N     0.34830   0.12534   0.65174   0.00000  Uiso   1.00
C2186  C     0.32943   0.12538   0.63328   0.00000  Uiso   1.00
C2187  C     0.32943   0.12536   0.61828   0.00000  Uiso   1.00
C2188  C     0.34402   0.12529   0.61399   0.00000  Uiso   1.00
C2189  C     0.31640   0.12542   0.61007   0.00000  Uiso   1.00
C2190  C     0.30289   0.12550   0.61785   0.00000  Uiso   1.00
C2191  C     0.30287   0.12551   0.63367   0.00000  Uiso   1.00
C2192  C     0.31638   0.12545   0.64147   0.00000  Uiso   1.00
N368   N     0.34830   0.12524   0.59983   0.00000  Uiso   1.00
H721   H     0.34656   0.12516   0.56825   0.00000  Uiso   1.00
H722   H     0.40193   0.12485   0.56825   0.00000  Uiso   1.00
H723   H     0.43179   0.12485   0.59811   0.00000  Uiso   1.00
H724   H     0.43179   0.12515   0.65348   0.00000  Uiso   1.00
H725   H     0.34659   0.12545   0.68334   0.00000  Uiso   1.00
H726   H     0.40193   0.12539   0.68331   0.00000  Uiso   1.00
H727   H     0.31673   0.12541   0.59810   0.00000  Uiso   1.00
H728   H     0.31669   0.12546   0.65344   0.00000  Uiso   1.00
C2193  C     0.28942   0.12556   0.61017   0.00000  Uiso   1.00
C2194  C     0.27608   0.12563   0.61793   0.00000  Uiso   1.00
C2195  C     0.27607   0.12564   0.63353   0.00000  Uiso   1.00
C2196  C     0.28939   0.12558   0.64132   0.00000  Uiso   1.00
C2197  C     0.35867   0.12503   0.54092   0.00000  Uiso   1.00
C2198  C     0.36665   0.12496   0.52771   0.00000  Uiso   1.00
C2199  C     0.38183   0.12487   0.52771   0.00000  Uiso   1.00
C2200  C     0.38981   0.12485   0.54091   0.00000  Uiso   1.00
C2201  C     0.45912   0.12485   0.61023   0.00000  Uiso   1.00
C2202  C     0.47233   0.12486   0.61821   0.00000  Uiso   1.00
C2203  C     0.47233   0.12495   0.63339   0.00000  Uiso   1.00
C2204  C     0.45912   0.12502   0.64137   0.00000  Uiso   1.00
C2205  C     0.35871   0.12555   0.71064   0.00000  Uiso   1.00
C2206  C     0.36650   0.12560   0.72397   0.00000  Uiso   1.00
C2207  C     0.38210   0.12560   0.72395   0.00000  Uiso   1.00
C2208  C     0.38986   0.12553   0.71061   0.00000  Uiso   1.00
H729   H     0.28925   0.12556   0.59820   0.00000  Uiso   1.00
O361   O     0.26267   0.12569   0.61033   0.00000  Uiso   1.00
O362   O     0.26263   0.12569   0.64109   0.00000  Uiso   1.00
H730   H     0.28920   0.12558   0.65329   0.00000  Uiso   1.00
H731   H     0.34670   0.12510   0.54062   0.00000  Uiso   1.00
O363   O     0.35992   0.12497   0.51401   0.00000  Uiso   1.00
O364   O     0.38855   0.12480   0.51401   0.00000  Uiso   1.00
H732   H     0.40178   0.12478   0.54062   0.00000  Uiso   1.00
H733   H     0.45942   0.12478   0.59826   0.00000  Uiso   1.00
O365   O     0.48603   0.12480   0.61149   0.00000  Uiso   1.00
O366   O     0.48603   0.12496   0.64011   0.00000  Uiso   1.00
H734   H     0.45942   0.12508   0.65333   0.00000  Uiso   1.00
H735   H     0.34674   0.12556   0.71084   0.00000  Uiso   1.00
O367   O     0.35894   0.12565   0.73741   0.00000  Uiso   1.00
O368   O     0.38970   0.12565   0.73737   0.00000  Uiso   1.00
H736   H     0.40184   0.12552   0.71079   0.00000  Uiso   1.00
Ni46   Ni    0.37425   0.12518   0.62579   0.00000  Uiso   1.00
C2209  C     0.87461   0.31637   0.61004   0.00000  Uiso   1.00
C2210  C     0.87454   0.30286   0.61783   0.00000  Uiso   1.00
C2211  C     0.87453   0.30285   0.63364   0.00000  Uiso   1.00
C2212  C     0.87458   0.31635   0.64145   0.00000  Uiso   1.00
C2213  C     0.87465   0.32940   0.63326   0.00000  Uiso   1.00
C2214  C     0.87467   0.32940   0.61825   0.00000  Uiso   1.00
C2215  C     0.87473   0.34400   0.61396   0.00000  Uiso   1.00
N369   N     0.87476   0.35329   0.62576   0.00000  Uiso   1.00
C2216  C     0.87470   0.34399   0.63756   0.00000  Uiso   1.00
N370   N     0.87468   0.34827   0.65171   0.00000  Uiso   1.00
C2217  C     0.87470   0.36243   0.65599   0.00000  Uiso   1.00
N371   N     0.87475   0.37422   0.64669   0.00000  Uiso   1.00
C2218  C     0.87473   0.38603   0.65598   0.00000  Uiso   1.00
C2219  C     0.87466   0.38174   0.67057   0.00000  Uiso   1.00
C2220  C     0.87465   0.36673   0.67058   0.00000  Uiso   1.00
N372   N     0.87490   0.39516   0.62575   0.00000  Uiso   1.00
C2221  C     0.87487   0.40445   0.63755   0.00000  Uiso   1.00
N373   N     0.87478   0.40018   0.65170   0.00000  Uiso   1.00
C2222  C     0.87493   0.41905   0.63326   0.00000  Uiso   1.00
C2223  C     0.87502   0.41904   0.61825   0.00000  Uiso   1.00
C2224  C     0.87500   0.40445   0.61395   0.00000  Uiso   1.00
C2225  C     0.87457   0.35854   0.68363   0.00000  Uiso   1.00
C2226  C     0.87452   0.36635   0.69713   0.00000  Uiso   1.00
C2227  C     0.87453   0.38216   0.69712   0.00000  Uiso   1.00
C2228  C     0.87460   0.38995   0.68360   0.00000  Uiso   1.00
C2229  C     0.87509   0.43208   0.61004   0.00000  Uiso   1.00
C2230  C     0.87508   0.44558   0.61783   0.00000  Uiso   1.00
C2231  C     0.87499   0.44558   0.63368   0.00000  Uiso   1.00
C2232  C     0.87492   0.43208   0.64147   0.00000  Uiso   1.00
N374   N     0.87490   0.37422   0.60482   0.00000  Uiso   1.00
C2233  C     0.87499   0.38602   0.59552   0.00000  Uiso   1.00
N375   N     0.87504   0.40017   0.59980   0.00000  Uiso   1.00
C2234  C     0.87502   0.38172   0.58093   0.00000  Uiso   1.00
C2235  C     0.87493   0.36671   0.58093   0.00000  Uiso   1.00
C2236  C     0.87487   0.36242   0.59553   0.00000  Uiso   1.00
C2237  C     0.87492   0.35850   0.56790   0.00000  Uiso   1.00
C2238  C     0.87499   0.36629   0.55439   0.00000  Uiso   1.00
C2239  C     0.87508   0.38214   0.55439   0.00000  Uiso   1.00
C2240  C     0.87509   0.38993   0.56789   0.00000  Uiso   1.00
N376   N     0.87478   0.34827   0.59980   0.00000  Uiso   1.00
H737   H     0.87462   0.31670   0.59807   0.00000  Uiso   1.00
H738   H     0.87457   0.31667   0.65342   0.00000  Uiso   1.00
H739   H     0.87456   0.34657   0.68331   0.00000  Uiso   1.00
H740   H     0.87461   0.40191   0.68327   0.00000  Uiso   1.00
H741   H     0.87516   0.43176   0.59807   0.00000  Uiso   1.00
H742   H     0.87485   0.43176   0.65344   0.00000  Uiso   1.00
H743   H     0.87485   0.34653   0.56822   0.00000  Uiso   1.00
H744   H     0.87515   0.40190   0.56821   0.00000  Uiso   1.00
C2241  C     0.87498   0.35864   0.54088   0.00000  Uiso   1.00
C2242  C     0.87504   0.36661   0.52768   0.00000  Uiso   1.00
C2243  C     0.87513   0.38180   0.52767   0.00000  Uiso   1.00
C2244  C     0.87515   0.38978   0.54088   0.00000  Uiso   1.00
C2245  C     0.87448   0.28940   0.61015   0.00000  Uiso   1.00
C2246  C     0.87442   0.27606   0.61791   0.00000  Uiso   1.00
C2247  C     0.87441   0.27604   0.63351   0.00000  Uiso   1.00
C2248  C     0.87447   0.28937   0.64130   0.00000  Uiso   1.00
C2249  C     0.87445   0.35869   0.71061   0.00000  Uiso   1.00
C2250  C     0.87439   0.36649   0.72394   0.00000  Uiso   1.00
C2251  C     0.87439   0.38209   0.72392   0.00000  Uiso   1.00
C2252  C     0.87446   0.38985   0.71058   0.00000  Uiso   1.00
C2253  C     0.87515   0.45910   0.61019   0.00000  Uiso   1.00
C2254  C     0.87513   0.47230   0.61817   0.00000  Uiso   1.00
C2255  C     0.87505   0.47230   0.63335   0.00000  Uiso   1.00
C2256  C     0.87498   0.45910   0.64133   0.00000  Uiso   1.00
H745   H     0.87491   0.34667   0.54059   0.00000  Uiso   1.00
O369   O     0.87503   0.35989   0.51397   0.00000  Uiso   1.00
O370   O     0.87518   0.38851   0.51397   0.00000  Uiso   1.00
H746   H     0.87521   0.40175   0.54058   0.00000  Uiso   1.00
H747   H     0.87449   0.28922   0.59817   0.00000  Uiso   1.00
O371   O     0.87436   0.26264   0.61031   0.00000  Uiso   1.00
O372   O     0.87436   0.26260   0.64107   0.00000  Uiso   1.00
H748   H     0.87446   0.28917   0.65327   0.00000  Uiso   1.00
H749   H     0.87444   0.34672   0.71081   0.00000  Uiso   1.00
O373   O     0.87433   0.35893   0.73738   0.00000  Uiso   1.00
O374   O     0.87433   0.38968   0.73734   0.00000  Uiso   1.00
H750   H     0.87447   0.40182   0.71075   0.00000  Uiso   1.00
H751   H     0.87522   0.45939   0.59822   0.00000  Uiso   1.00
O375   O     0.87519   0.48600   0.61145   0.00000  Uiso   1.00
O376   O     0.87503   0.48600   0.64007   0.00000  Uiso   1.00
H752   H     0.87491   0.45939   0.65329   0.00000  Uiso   1.00
Ni47   Ni    0.87483   0.37422   0.62575   0.00000  Uiso   1.00
C2257  C     0.12544   0.68368   0.64150   0.00000  Uiso   1.00
C2258  C     0.12549   0.69718   0.63370   0.00000  Uiso   1.00
C2259  C     0.12548   0.69717   0.61788   0.00000  Uiso   1.00
C2260  C     0.12540   0.68365   0.61009   0.00000  Uiso   1.00
C2261  C     0.12535   0.67062   0.61830   0.00000  Uiso   1.00
C2262  C     0.12537   0.67063   0.63331   0.00000  Uiso   1.00
C2263  C     0.12532   0.65603   0.63761   0.00000  Uiso   1.00
N377   N     0.12526   0.64674   0.62581   0.00000  Uiso   1.00
C2264  C     0.12528   0.65603   0.61401   0.00000  Uiso   1.00
N378   N     0.12522   0.65175   0.59986   0.00000  Uiso   1.00
C2265  C     0.12514   0.63760   0.59558   0.00000  Uiso   1.00
N379   N     0.12510   0.62580   0.60487   0.00000  Uiso   1.00
C2266  C     0.12501   0.61400   0.59557   0.00000  Uiso   1.00
C2267  C     0.12498   0.61829   0.58098   0.00000  Uiso   1.00
C2268  C     0.12507   0.63331   0.58098   0.00000  Uiso   1.00
N380   N     0.12510   0.60487   0.62580   0.00000  Uiso   1.00
C2269  C     0.12501   0.59557   0.61400   0.00000  Uiso   1.00
N381   N     0.12496   0.59985   0.59985   0.00000  Uiso   1.00
C2270  C     0.12499   0.58098   0.61830   0.00000  Uiso   1.00
C2271  C     0.12507   0.58098   0.63331   0.00000  Uiso   1.00
C2272  C     0.12514   0.59557   0.63760   0.00000  Uiso   1.00
C2273  C     0.12508   0.64152   0.56795   0.00000  Uiso   1.00
C2274  C     0.12500   0.63373   0.55444   0.00000  Uiso   1.00
C2275  C     0.12491   0.61788   0.55444   0.00000  Uiso   1.00
C2276  C     0.12490   0.61009   0.56794   0.00000  Uiso   1.00
C2277  C     0.12508   0.56795   0.64152   0.00000  Uiso   1.00
C2278  C     0.12501   0.55444   0.63373   0.00000  Uiso   1.00
C2279  C     0.12492   0.55444   0.61788   0.00000  Uiso   1.00
C2280  C     0.12491   0.56794   0.61009   0.00000  Uiso   1.00
N382   N     0.12526   0.62581   0.64674   0.00000  Uiso   1.00
C2281  C     0.12528   0.61401   0.65603   0.00000  Uiso   1.00
N383   N     0.12523   0.59985   0.65175   0.00000  Uiso   1.00
C2282  C     0.12535   0.61830   0.67062   0.00000  Uiso   1.00
C2283  C     0.12537   0.63330   0.67063   0.00000  Uiso   1.00
C2284  C     0.12532   0.63760   0.65604   0.00000  Uiso   1.00
C2285  C     0.12545   0.64150   0.68368   0.00000  Uiso   1.00
C2286  C     0.12550   0.63369   0.69718   0.00000  Uiso   1.00
C2287  C     0.12549   0.61787   0.69717   0.00000  Uiso   1.00
C2288  C     0.12541   0.61009   0.68365   0.00000  Uiso   1.00
N384   N     0.12534   0.65176   0.65176   0.00000  Uiso   1.00
H753   H     0.12546   0.68336   0.65347   0.00000  Uiso   1.00
H754   H     0.12539   0.68332   0.59813   0.00000  Uiso   1.00
H755   H     0.12515   0.65349   0.56827   0.00000  Uiso   1.00
H756   H     0.12484   0.59812   0.56826   0.00000  Uiso   1.00
H757   H     0.12515   0.56827   0.65349   0.00000  Uiso   1.00
H758   H     0.12484   0.56826   0.59812   0.00000  Uiso   1.00
H759   H     0.12546   0.65346   0.68337   0.00000  Uiso   1.00
H760   H     0.12539   0.59812   0.68332   0.00000  Uiso   1.00
C2289  C     0.12557   0.64134   0.71066   0.00000  Uiso   1.00
C2290  C     0.12563   0.63355   0.72399   0.00000  Uiso   1.00
C2291  C     0.12562   0.61795   0.72397   0.00000  Uiso   1.00
C2292  C     0.12555   0.61019   0.71063   0.00000  Uiso   1.00
C2293  C     0.12556   0.71066   0.64135   0.00000  Uiso   1.00
C2294  C     0.12562   0.72399   0.63356   0.00000  Uiso   1.00
C2295  C     0.12561   0.72397   0.61796   0.00000  Uiso   1.00
C2296  C     0.12554   0.71063   0.61020   0.00000  Uiso   1.00
C2297  C     0.12501   0.64137   0.54093   0.00000  Uiso   1.00
C2298  C     0.12494   0.63340   0.52773   0.00000  Uiso   1.00
C2299  C     0.12486   0.61821   0.52773   0.00000  Uiso   1.00
C2300  C     0.12484   0.61023   0.54093   0.00000  Uiso   1.00
C2301  C     0.12502   0.54093   0.64137   0.00000  Uiso   1.00
C2302  C     0.12495   0.52772   0.63340   0.00000  Uiso   1.00
C2303  C     0.12486   0.52772   0.61821   0.00000  Uiso   1.00
C2304  C     0.12484   0.54093   0.61024   0.00000  Uiso   1.00
H761   H     0.12558   0.65331   0.71086   0.00000  Uiso   1.00
O377   O     0.12568   0.64111   0.73743   0.00000  Uiso   1.00
O378   O     0.12567   0.61036   0.73738   0.00000  Uiso   1.00
H762   H     0.12554   0.59822   0.71080   0.00000  Uiso   1.00
H763   H     0.12557   0.71086   0.65332   0.00000  Uiso   1.00
O379   O     0.12567   0.73742   0.64112   0.00000  Uiso   1.00
O380   O     0.12566   0.73738   0.61037   0.00000  Uiso   1.00
H764   H     0.12553   0.71080   0.59823   0.00000  Uiso   1.00
H765   H     0.12508   0.65334   0.54064   0.00000  Uiso   1.00
O381   O     0.12495   0.64011   0.51402   0.00000  Uiso   1.00
O382   O     0.12479   0.61149   0.51402   0.00000  Uiso   1.00
H766   H     0.12477   0.59827   0.54063   0.00000  Uiso   1.00
H767   H     0.12509   0.54064   0.65334   0.00000  Uiso   1.00
O383   O     0.12496   0.51402   0.64012   0.00000  Uiso   1.00
O384   O     0.12480   0.51402   0.61149   0.00000  Uiso   1.00
H768   H     0.12478   0.54063   0.59827   0.00000  Uiso   1.00
Ni48   Ni    0.12518   0.62580   0.62580   0.00000  Uiso   1.00
Cu1    Cu    0.12577   1.00000   0.37514   0.00000  Uiso   1.00
Cu2    Cu   -0.00000   0.12578   0.37513   0.00000  Uiso   1.00
Cu3    Cu    0.87421   0.99998   0.37513   0.00000  Uiso   1.00
Cu4    Cu   -0.00002   0.87420   0.37514   0.00000  Uiso   1.00
Cu5    Cu    0.12581   1.00002   0.62488   0.00000  Uiso   1.00
Cu6    Cu    0.00003   0.12580   0.62485   0.00000  Uiso   1.00
Cu7    Cu    0.87424   1.00000   0.62484   0.00000  Uiso   1.00
Cu8    Cu    0.00001   0.87423   0.62487   0.00000  Uiso   1.00
Cu9    Cu    0.37510   0.12577   0.00001   0.00000  Uiso   1.00
Cu10   Cu    0.87421   0.37515   0.99998   0.00000  Uiso   1.00
Cu11   Cu    0.62488   0.87422  -0.00000   0.00000  Uiso   1.00
Cu12   Cu    0.12581   0.62486   0.00003   0.00000  Uiso   1.00
Cu13   Cu    0.37513   0.87420  -0.00001   0.00000  Uiso   1.00
Cu14   Cu    0.12578   0.37513   0.00001   0.00000  Uiso   1.00
Cu15   Cu    0.62486   0.12580   1.00002   0.00000  Uiso   1.00
Cu16   Cu    0.87424   0.62486   0.99998   0.00000  Uiso   1.00
Cu17   Cu    1.00000   0.37513   0.12578   0.00000  Uiso   1.00
Cu18   Cu    0.00002   0.62486   0.87422   0.00000  Uiso   1.00
Cu19   Cu    0.37513   0.99998   0.87421   0.00000  Uiso   1.00
Cu20   Cu   -0.00001   0.37515   0.87421   0.00000  Uiso   1.00
Cu21   Cu    0.62489   1.00000   0.87423   0.00000  Uiso   1.00
Cu22   Cu    0.00002   0.62486   0.12579   0.00000  Uiso   1.00
Cu23   Cu    0.37510   1.00000   0.12578   0.00000  Uiso   1.00
Cu24   Cu    0.62484   1.00002   0.12580   0.00000  Uiso   1.00
Cu25   Cu    0.62579   0.50000   0.87511   0.00000  Uiso   1.00
Cu26   Cu    0.50002   0.62578   0.87511   0.00000  Uiso   1.00
Cu27   Cu    0.37422   0.49998   0.87514   0.00000  Uiso   1.00
Cu28   Cu    0.49999   0.37420   0.87515   0.00000  Uiso   1.00
Cu29   Cu    0.62580   0.50002   0.12485   0.00000  Uiso   1.00
Cu30   Cu    0.50002   0.62580   0.12485   0.00000  Uiso   1.00
Cu31   Cu    0.37423   0.50000   0.12488   0.00000  Uiso   1.00
Cu32   Cu    0.50000   0.37422   0.12487   0.00000  Uiso   1.00
Cu33   Cu    0.87510   0.62577   0.49998   0.00000  Uiso   1.00
Cu34   Cu    0.37421   0.87516   0.49999   0.00000  Uiso   1.00
Cu35   Cu    0.12486   0.37423   0.50001   0.00000  Uiso   1.00
Cu36   Cu    0.62580   0.12486   0.50002   0.00000  Uiso   1.00
Cu37   Cu    0.87510   0.37420   0.49998   0.00000  Uiso   1.00
Cu38   Cu    0.62578   0.87514   0.50000   0.00000  Uiso   1.00
Cu39   Cu    0.12487   0.62580   0.50003   0.00000  Uiso   1.00
Cu40   Cu    0.37423   0.12488   0.50001   0.00000  Uiso   1.00
Cu41   Cu    0.50001   0.87514   0.62578   0.00000  Uiso   1.00
Cu42   Cu    0.50000   0.12486   0.37423   0.00000  Uiso   1.00
Cu43   Cu    0.87510   0.49998   0.37419   0.00000  Uiso   1.00
Cu44   Cu    0.49998   0.87515   0.37421   0.00000  Uiso   1.00
Cu45   Cu    0.12486   0.50000   0.37423   0.00000  Uiso   1.00
Cu46   Cu    0.50003   0.12488   0.62580   0.00000  Uiso   1.00
Cu47   Cu    0.87511   0.50000   0.62576   0.00000  Uiso   1.00
Cu48   Cu    0.12488   0.50002   0.62580   0.00000  Uiso   1.00
Zn1    Zn    0.12570   0.25000   0.37432   0.00000  Uiso   1.00
Zn2    Zn    0.75000   0.12566   0.37432   0.00000  Uiso   1.00
Zn3    Zn    0.87429   0.74998   0.37429   0.00000  Uiso   1.00
Zn4    Zn    0.24998   0.87433   0.37430   0.00000  Uiso   1.00
Zn5    Zn    0.12570   0.75002   0.62572   0.00000  Uiso   1.00
Zn6    Zn    0.25003   0.12572   0.62569   0.00000  Uiso   1.00
Zn7    Zn    0.87433   0.25000   0.62567   0.00000  Uiso   1.00
Zn8    Zn    0.75001   0.87431   0.62569   0.00000  Uiso   1.00
Zn9    Zn    0.37429   0.12570   0.25001   0.00000  Uiso   1.00
Zn10   Zn    0.87430   0.37428   0.24997   0.00000  Uiso   1.00
Zn11   Zn    0.62567   0.87432   0.25000   0.00000  Uiso   1.00
Zn12   Zn    0.12571   0.62569   0.25003   0.00000  Uiso   1.00
Zn13   Zn    0.37433   0.87429   0.74999   0.00000  Uiso   1.00
Zn14   Zn    0.12569   0.37433   0.75001   0.00000  Uiso   1.00
Zn15   Zn    0.62573   0.12569   0.75002   0.00000  Uiso   1.00
Zn16   Zn    0.87432   0.62570   0.74998   0.00000  Uiso   1.00
Zn17   Zn    0.25000   0.37431   0.12572   0.00000  Uiso   1.00
Zn18   Zn    0.25002   0.62567   0.87434   0.00000  Uiso   1.00
Zn19   Zn    0.37430   0.24998   0.87433   0.00000  Uiso   1.00
Zn20   Zn    0.74999   0.37433   0.87428   0.00000  Uiso   1.00
Zn21   Zn    0.62572   0.75000   0.87429   0.00000  Uiso   1.00
Zn22   Zn    0.75002   0.62571   0.12565   0.00000  Uiso   1.00
Zn23   Zn    0.37434   0.75000   0.12568   0.00000  Uiso   1.00
Zn24   Zn    0.62567   0.25002   0.12571   0.00000  Uiso   1.00
Zn25   Zn    0.87431   0.75000   0.62567   0.00000  Uiso   1.00
Zn26   Zn    0.25001   0.87434   0.62568   0.00000  Uiso   1.00
Zn27   Zn    0.12572   0.25002   0.62570   0.00000  Uiso   1.00
Zn28   Zn    0.75003   0.12568   0.62570   0.00000  Uiso   1.00
Zn29   Zn    0.87431   0.24997   0.37429   0.00000  Uiso   1.00
Zn30   Zn    0.74998   0.87428   0.37431   0.00000  Uiso   1.00
Zn31   Zn    0.12568   0.75000   0.37433   0.00000  Uiso   1.00
Zn32   Zn    0.25000   0.12570   0.37432   0.00000  Uiso   1.00
Zn33   Zn    0.62572   0.87431   0.75000   0.00000  Uiso   1.00
Zn34   Zn    0.12571   0.62571   0.75003   0.00000  Uiso   1.00
Zn35   Zn    0.37434   0.12568   0.75001   0.00000  Uiso   1.00
Zn36   Zn    0.87430   0.37433   0.74998   0.00000  Uiso   1.00
Zn37   Zn    0.62568   0.12570   0.25002   0.00000  Uiso   1.00
Zn38   Zn    0.87432   0.62566   0.24998   0.00000  Uiso   1.00
Zn39   Zn    0.37428   0.87432   0.24999   0.00000  Uiso   1.00
Zn40   Zn    0.12569   0.37430   0.25001   0.00000  Uiso   1.00
Zn41   Zn    0.75002   0.62570   0.87427   0.00000  Uiso   1.00
Zn42   Zn    0.75000   0.37432   0.12566   0.00000  Uiso   1.00
Zn43   Zn    0.62572   0.75002   0.12568   0.00000  Uiso   1.00
Zn44   Zn    0.25002   0.62568   0.12573   0.00000  Uiso   1.00
Zn45   Zn    0.37429   0.25000   0.12570   0.00000  Uiso   1.00
Zn46   Zn    0.24999   0.37429   0.87434   0.00000  Uiso   1.00
Zn47   Zn    0.62569   0.25000   0.87433   0.00000  Uiso   1.00
Zn48   Zn    0.37433   0.74998   0.87429   0.00000  Uiso   1.00
loop_
_geom_bond_atom_site_label_1
_geom_bond_atom_site_label_2
_geom_bond_distance
_geom_bond_site_symmetry_2
_ccdc_geom_bond_type
C1     C2      1.411   .     A
C1     C6      1.394   .     A
C1     H1      1.084   .     S
C2     C3      1.435   .     A
C2     C37     1.405   .     A
C3     C4      1.411   .     A
C3     C40     1.405   .     A
C4     C5      1.394   .     A
C4     H2      1.084   .     S
C5     C6      1.359   .     A
C5     C8      1.377   .     A
C6     C7      1.377   .     A
C7     N1      1.359   .     A
C7     N8      1.338   .     A
N1     C8      1.359   .     A
N1     Ni1     1.895   .     S
C8     N2      1.338   .     A
N2     C9      1.338   .     A
C9     N3      1.359   .     A
C9     C12     1.377   .     A
N3     C10     1.359   .     A
N3     Ni1     1.895   .     S
C10    C11     1.377   .     A
C10    N5      1.338   .     A
C11    C12     1.358   .     A
C11    C20     1.394   .     A
C12    C17     1.394   .     A
N4     C13     1.359   .     A
N4     C16     1.359   .     A
N4     Ni1     1.895   .     S
C13    N5      1.338   .     A
C13    C14     1.377   .     A
C14    C15     1.358   .     A
C14    C24     1.394   .     A
C15    C16     1.377   .     A
C15    C21     1.394   .     A
C16    N7      1.338   .     A
C17    C18     1.411   .     A
C17    H3      1.084   .     S
C18    C19     1.432   .     A
C18    C41     1.403   .     A
C19    C20     1.412   .     A
C19    C44     1.403   .     A
C20    H4      1.084   .     S
C21    C22     1.411   .     A
C21    H5      1.084   .     S
C22    C23     1.432   .     A
C22    C45     1.403   .     A
C23    C24     1.412   .     A
C23    C48     1.403   .     A
C24    H6      1.084   .     S
N6     C25     1.359   .     A
N6     C28     1.359   .     A
N6     Ni1     1.895   .     S
C25    N7      1.338   .     A
C25    C26     1.377   .     A
C26    C27     1.359   .     A
C26    C32     1.394   .     A
C27    C28     1.377   .     A
C27    C29     1.394   .     A
C28    N8      1.338   .     A
C29    C30     1.411   .     A
C29    H7      1.084   .     S
C30    C31     1.435   .     A
C30    C33     1.405   .     A
C31    C32     1.411   .     A
C31    C36     1.405   .     A
C32    H8      1.084   .     S
C33    C34     1.396   .     A
C33    H9      1.083   .     S
C34    C35     1.374   .     A
C34    O1      1.381   .     S
C35    C36     1.396   .     A
C35    O2      1.381   .     S
C36    H10     1.083   .     S
C37    C38     1.396   .     A
C37    H11     1.083   .     S
C38    C39     1.374   .     A
C38    O3      1.381   .     S
C39    C40     1.396   .     A
C39    O4      1.381   .     S
C40    H12     1.083   .     S
C41    C42     1.397   .     A
C41    H13     1.084   .     S
C42    C43     1.412   .     A
C42    O5      1.395   .     S
C43    C44     1.397   .     A
C43    O6      1.396   .     S
C44    H14     1.084   .     S
C45    C46     1.397   .     A
C45    H15     1.084   .     S
C46    C47     1.412   .     A
C46    O7      1.395   .     S
C47    C48     1.397   .     A
C47    O8      1.396   .     S
C48    H16     1.084   .     S
O1     Cu2     1.812   .     S
O2     Cu2     1.812   .     S
O3     Cu1     1.812   1_545 S
O4     Cu1     1.812   1_545 S
O5     Zn32    1.800   .     S
O6     Zn32    1.801   .     S
O7     Zn1     1.800   .     S
O8     Zn1     1.801   .     S
C49    C50     1.411   .     A
C49    C54     1.394   .     A
C49    H17     1.084   .     S
C50    C51     1.435   .     A
C50    C85     1.405   .     A
C51    C52     1.411   .     A
C51    C88     1.405   .     A
C52    C53     1.394   .     A
C52    H18     1.084   .     S
C53    C54     1.359   .     A
C53    C56     1.377   .     A
C54    C55     1.377   .     A
C55    N9      1.359   .     A
C55    N16     1.338   .     A
N9     C56     1.359   .     A
N9     Ni2     1.895   .     S
C56    N10     1.338   .     A
N10    C57     1.338   .     A
C57    N11     1.359   .     A
C57    C60     1.377   .     A
N11    C58     1.359   .     A
N11    Ni2     1.895   .     S
C58    C59     1.377   .     A
C58    N13     1.338   .     A
C59    C60     1.359   .     A
C59    C68     1.394   .     A
C60    C65     1.394   .     A
N12    C61     1.359   .     A
N12    C64     1.359   .     A
N12    Ni2     1.895   .     S
C61    N13     1.338   .     A
C61    C62     1.377   .     A
C62    C63     1.358   .     A
C62    C72     1.394   .     A
C63    C64     1.377   .     A
C63    C69     1.394   .     A
C64    N15     1.338   .     A
C65    C66     1.411   .     A
C65    H19     1.084   .     S
C66    C67     1.435   .     A
C66    C89     1.405   .     A
C67    C68     1.411   .     A
C67    C92     1.405   .     A
C68    H20     1.084   .     S
C69    C70     1.412   .     A
C69    H21     1.084   .     S
C70    C71     1.432   .     A
C70    C93     1.403   .     A
C71    C72     1.411   .     A
C71    C96     1.403   .     A
C72    H22     1.084   .     S
N14    C73     1.359   .     A
N14    C76     1.359   .     A
N14    Ni2     1.895   .     S
C73    N15     1.338   .     A
C73    C74     1.377   .     A
C74    C75     1.358   .     A
C74    C80     1.394   .     A
C75    C76     1.377   .     A
C75    C77     1.394   .     A
C76    N16     1.338   .     A
C77    C78     1.411   .     A
C77    H23     1.084   .     S
C78    C79     1.432   .     A
C78    C81     1.403   .     A
C79    C80     1.412   .     A
C79    C84     1.403   .     A
C80    H24     1.084   .     S
C81    C82     1.397   .     A
C81    H25     1.084   .     S
C82    C83     1.412   .     A
C82    O9      1.395   .     S
C83    C84     1.397   .     A
C83    O10     1.396   .     S
C84    H26     1.084   .     S
C85    C86     1.396   .     A
C85    H27     1.083   .     S
C86    C87     1.374   .     A
C86    O11     1.381   .     S
C87    C88     1.396   .     A
C87    O12     1.381   .     S
C88    H28     1.083   .     S
C89    C90     1.396   .     A
C89    H29     1.083   .     S
C90    C91     1.374   .     A
C90    O13     1.381   .     S
C91    C92     1.396   .     A
C91    O14     1.381   .     S
C92    H30     1.083   .     S
C93    C94     1.397   .     A
C93    H31     1.084   .     S
C94    C95     1.412   .     A
C94    O15     1.396   .     S
C95    C96     1.397   .     A
C95    O16     1.395   .     S
C96    H32     1.084   .     S
O9     Zn2     1.800   .     S
O10    Zn2     1.801   .     S
O11    Cu3     1.812   1_545 S
O12    Cu3     1.812   1_545 S
O13    Cu2     1.812   1_655 S
O14    Cu2     1.812   1_655 S
O15    Zn29    1.801   .     S
O16    Zn29    1.800   .     S
C97    C98     1.412   .     A
C97    C102    1.394   .     A
C97    H33     1.084   .     S
C98    C99     1.432   .     A
C98    C133    1.403   .     A
C99    C100    1.411   .     A
C99    C136    1.403   .     A
C100   C101    1.394   .     A
C100   H34     1.084   .     S
C101   C102    1.358   .     A
C101   C104    1.377   .     A
C102   C103    1.377   .     A
C103   N17     1.359   .     A
C103   N24     1.338   .     A
N17    C104    1.359   .     A
N17    Ni3     1.895   .     S
C104   N18     1.338   .     A
N18    C105    1.338   .     A
C105   N19     1.359   .     A
C105   C108    1.377   .     A
N19    C106    1.359   .     A
N19    Ni3     1.895   .     S
C106   C107    1.377   .     A
C106   N21     1.338   .     A
C107   C108    1.359   .     A
C107   C116    1.394   .     A
C108   C113    1.394   .     A
N20    C109    1.359   .     A
N20    C112    1.359   .     A
N20    Ni3     1.895   .     S
C109   N21     1.338   .     A
C109   C110    1.377   .     A
C110   C111    1.359   .     A
C110   C120    1.394   .     A
C111   C112    1.377   .     A
C111   C117    1.394   .     A
C112   N23     1.338   .     A
C113   C114    1.411   .     A
C113   H35     1.084   .     S
C114   C115    1.435   .     A
C114   C137    1.405   .     A
C115   C116    1.411   .     A
C115   C140    1.405   .     A
C116   H36     1.084   .     S
C117   C118    1.411   .     A
C117   H37     1.084   .     S
C118   C119    1.435   .     A
C118   C141    1.405   .     A
C119   C120    1.411   .     A
C119   C144    1.405   .     A
C120   H38     1.084   .     S
N22    C121    1.359   .     A
N22    C124    1.359   .     A
N22    Ni3     1.895   .     S
C121   N23     1.338   .     A
C121   C122    1.377   .     A
C122   C123    1.358   .     A
C122   C128    1.394   .     A
C123   C124    1.377   .     A
C123   C125    1.394   .     A
C124   N24     1.338   .     A
C125   C126    1.412   .     A
C125   H39     1.084   .     S
C126   C127    1.432   .     A
C126   C129    1.403   .     A
C127   C128    1.411   .     A
C127   C132    1.403   .     A
C128   H40     1.084   .     S
C129   C130    1.397   .     A
C129   H41     1.084   .     S
C130   C131    1.412   .     A
C130   O17     1.396   .     S
C131   C132    1.397   .     A
C131   O18     1.395   .     S
C132   H42     1.084   .     S
C133   C134    1.397   .     A
C133   H43     1.084   .     S
C134   C135    1.412   .     A
C134   O19     1.396   .     S
C135   C136    1.397   .     A
C135   O20     1.395   .     S
C136   H44     1.084   .     S
C137   C138    1.396   .     A
C137   H45     1.083   .     S
C138   C139    1.374   .     A
C138   O21     1.381   .     S
C139   C140    1.396   .     A
C139   O22     1.381   .     S
C140   H46     1.083   .     S
C141   C142    1.396   .     A
C141   H47     1.083   .     S
C142   C143    1.374   .     A
C142   O23     1.381   .     S
C143   C144    1.396   .     A
C143   O24     1.381   .     S
C144   H48     1.083   .     S
O17    Zn30    1.801   .     S
O18    Zn30    1.800   .     S
O19    Zn3     1.801   .     S
O20    Zn3     1.800   .     S
O21    Cu4     1.812   1_655 S
O22    Cu4     1.812   1_655 S
O23    Cu3     1.812   .     S
O24    Cu3     1.812   .     S
C145   C146    1.411   .     A
C145   C150    1.394   .     A
C145   H49     1.084   .     S
C146   C147    1.432   .     A
C146   C181    1.403   .     A
C147   C148    1.412   .     A
C147   C184    1.403   .     A
C148   C149    1.394   .     A
C148   H50     1.084   .     S
C149   C150    1.358   .     A
C149   C152    1.377   .     A
C150   C151    1.377   .     A
C151   N25     1.359   .     A
C151   N32     1.338   .     A
N25    C152    1.359   .     A
N25    Ni4     1.895   .     S
C152   N26     1.338   .     A
N26    C153    1.338   .     A
C153   N27     1.359   .     A
C153   C156    1.377   .     A
N27    C154    1.359   .     A
N27    Ni4     1.895   .     S
C154   C155    1.377   .     A
C154   N29     1.338   .     A
C155   C156    1.358   .     A
C155   C164    1.394   .     A
C156   C161    1.394   .     A
N28    C157    1.359   .     A
N28    C160    1.359   .     A
N28    Ni4     1.895   .     S
C157   N29     1.338   .     A
C157   C158    1.377   .     A
C158   C159    1.359   .     A
C158   C168    1.394   .     A
C159   C160    1.377   .     A
C159   C165    1.394   .     A
C160   N31     1.338   .     A
C161   C162    1.412   .     A
C161   H51     1.084   .     S
C162   C163    1.432   .     A
C162   C185    1.403   .     A
C163   C164    1.411   .     A
C163   C188    1.403   .     A
C164   H52     1.084   .     S
C165   C166    1.411   .     A
C165   H53     1.084   .     S
C166   C167    1.435   .     A
C166   C189    1.405   .     A
C167   C168    1.411   .     A
C167   C192    1.405   .     A
C168   H54     1.084   .     S
N30    C169    1.359   .     A
N30    C172    1.359   .     A
N30    Ni4     1.895   .     S
C169   N31     1.338   .     A
C169   C170    1.377   .     A
C170   C171    1.359   .     A
C170   C176    1.394   .     A
C171   C172    1.377   .     A
C171   C173    1.394   .     A
C172   N32     1.338   .     A
C173   C174    1.411   .     A
C173   H55     1.084   .     S
C174   C175    1.435   .     A
C174   C177    1.405   .     A
C175   C176    1.411   .     A
C175   C180    1.405   .     A
C176   H56     1.084   .     S
C177   C178    1.396   .     A
C177   H57     1.083   .     S
C178   C179    1.374   .     A
C178   O25     1.381   .     S
C179   C180    1.396   .     A
C179   O26     1.381   .     S
C180   H58     1.083   .     S
C181   C182    1.397   .     A
C181   H59     1.084   .     S
C182   C183    1.412   .     A
C182   O27     1.395   .     S
C183   C184    1.397   .     A
C183   O28     1.396   .     S
C184   H60     1.084   .     S
C185   C186    1.397   .     A
C185   H61     1.084   .     S
C186   C187    1.412   .     A
C186   O29     1.396   .     S
C187   C188    1.397   .     A
C187   O30     1.395   .     S
C188   H62     1.084   .     S
C189   C190    1.396   .     A
C189   H63     1.083   .     S
C190   C191    1.374   .     A
C190   O31     1.381   .     S
C191   C192    1.396   .     A
C191   O32     1.381   .     S
C192   H64     1.083   .     S
O25    Cu4     1.812   .     S
O26    Cu4     1.812   .     S
O27    Zn31    1.800   .     S
O28    Zn31    1.801   .     S
O29    Zn4     1.801   .     S
O30    Zn4     1.800   .     S
O31    Cu1     1.812   .     S
O32    Cu1     1.812   .     S
C193   C194    1.411   .     A
C193   C198    1.394   .     A
C193   H65     1.084   .     S
C194   C195    1.432   .     A
C194   C229    1.403   .     A
C195   C196    1.412   .     A
C195   C232    1.403   .     A
C196   C197    1.394   .     A
C196   H66     1.084   .     S
C197   C198    1.358   .     A
C197   C200    1.377   .     A
C198   C199    1.377   .     A
C199   N33     1.359   .     A
C199   N40     1.338   .     A
N33    C200    1.359   .     A
N33    Ni5     1.895   .     S
C200   N34     1.338   .     A
N34    C201    1.338   .     A
C201   N35     1.359   .     A
C201   C204    1.377   .     A
N35    C202    1.359   .     A
N35    Ni5     1.895   .     S
C202   C203    1.377   .     A
C202   N37     1.338   .     A
C203   C204    1.358   .     A
C203   C212    1.394   .     A
C204   C209    1.394   .     A
N36    C205    1.359   .     A
N36    C208    1.359   .     A
N36    Ni5     1.895   .     S
C205   N37     1.338   .     A
C205   C206    1.377   .     A
C206   C207    1.359   .     A
C206   C216    1.394   .     A
C207   C208    1.377   .     A
C207   C213    1.394   .     A
C208   N39     1.338   .     A
C209   C210    1.412   .     A
C209   H67     1.084   .     S
C210   C211    1.432   .     A
C210   C233    1.403   .     A
C211   C212    1.411   .     A
C211   C236    1.403   .     A
C212   H68     1.084   .     S
C213   C214    1.411   .     A
C213   H69     1.084   .     S
C214   C215    1.435   .     A
C214   C237    1.405   .     A
C215   C216    1.411   .     A
C215   C240    1.405   .     A
C216   H70     1.084   .     S
N38    C217    1.359   .     A
N38    C220    1.359   .     A
N38    Ni5     1.895   .     S
C217   N39     1.338   .     A
C217   C218    1.377   .     A
C218   C219    1.359   .     A
C218   C224    1.394   .     A
C219   C220    1.377   .     A
C219   C221    1.394   .     A
C220   N40     1.338   .     A
C221   C222    1.411   .     A
C221   H71     1.084   .     S
C222   C223    1.435   .     A
C222   C225    1.405   .     A
C223   C224    1.411   .     A
C223   C228    1.405   .     A
C224   H72     1.084   .     S
C225   C226    1.396   .     A
C225   H73     1.083   .     S
C226   C227    1.374   .     A
C226   O33     1.381   .     S
C227   C228    1.396   .     A
C227   O34     1.381   .     S
C228   H74     1.083   .     S
C229   C230    1.397   .     A
C229   H75     1.084   .     S
C230   C231    1.412   .     A
C230   O35     1.395   .     S
C231   C232    1.397   .     A
C231   O36     1.396   .     S
C232   H76     1.084   .     S
C233   C234    1.397   .     A
C233   H77     1.084   .     S
C234   C235    1.412   .     A
C234   O37     1.396   .     S
C235   C236    1.397   .     A
C235   O38     1.395   .     S
C236   H78     1.084   .     S
C237   C238    1.396   .     A
C237   H79     1.083   .     S
C238   C239    1.374   .     A
C238   O39     1.381   .     S
C239   C240    1.396   .     A
C239   O40     1.381   .     S
C240   H80     1.083   .     S
O33    Cu8     1.812   .     S
O34    Cu8     1.812   .     S
O35    Zn5     1.800   .     S
O36    Zn5     1.801   .     S
O37    Zn26    1.801   .     S
O38    Zn26    1.800   .     S
O39    Cu5     1.812   .     S
O40    Cu5     1.812   .     S
C241   C242    1.411   .     A
C241   C246    1.394   .     A
C241   H81     1.084   .     S
C242   C243    1.435   .     A
C242   C277    1.405   .     A
C243   C244    1.411   .     A
C243   C280    1.405   .     A
C244   C245    1.394   .     A
C244   H82     1.084   .     S
C245   C246    1.359   .     A
C245   C248    1.377   .     A
C246   C247    1.377   .     A
C247   N41     1.359   .     A
C247   N48     1.338   .     A
N41    C248    1.359   .     A
N41    Ni6     1.895   .     S
C248   N42     1.338   .     A
N42    C249    1.338   .     A
C249   N43     1.359   .     A
C249   C252    1.377   .     A
N43    C250    1.359   .     A
N43    Ni6     1.895   .     S
C250   C251    1.377   .     A
C250   N45     1.338   .     A
C251   C252    1.358   .     A
C251   C260    1.394   .     A
C252   C257    1.394   .     A
N44    C253    1.359   .     A
N44    C256    1.359   .     A
N44    Ni6     1.895   .     S
C253   N45     1.338   .     A
C253   C254    1.377   .     A
C254   C255    1.358   .     A
C254   C264    1.394   .     A
C255   C256    1.377   .     A
C255   C261    1.394   .     A
C256   N47     1.338   .     A
C257   C258    1.411   .     A
C257   H83     1.084   .     S
C258   C259    1.432   .     A
C258   C281    1.403   .     A
C259   C260    1.412   .     A
C259   C284    1.403   .     A
C260   H84     1.084   .     S
C261   C262    1.411   .     A
C261   H85     1.084   .     S
C262   C263    1.432   .     A
C262   C285    1.403   .     A
C263   C264    1.412   .     A
C263   C288    1.403   .     A
C264   H86     1.084   .     S
N46    C265    1.359   .     A
N46    C268    1.359   .     A
N46    Ni6     1.895   .     S
C265   N47     1.338   .     A
C265   C266    1.377   .     A
C266   C267    1.359   .     A
C266   C272    1.394   .     A
C267   C268    1.377   .     A
C267   C269    1.394   .     A
C268   N48     1.338   .     A
C269   C270    1.411   .     A
C269   H87     1.084   .     S
C270   C271    1.435   .     A
C270   C273    1.405   .     A
C271   C272    1.411   .     A
C271   C276    1.405   .     A
C272   H88     1.084   .     S
C273   C274    1.396   .     A
C273   H89     1.083   .     S
C274   C275    1.374   .     A
C274   O41     1.381   .     S
C275   C276    1.396   .     A
C275   O42     1.381   .     S
C276   H90     1.083   .     S
C277   C278    1.396   .     A
C277   H91     1.083   .     S
C278   C279    1.374   .     A
C278   O43     1.381   .     S
C279   C280    1.396   .     A
C279   O44     1.381   .     S
C280   H92     1.083   .     S
C281   C282    1.397   .     A
C281   H93     1.084   .     S
C282   C283    1.412   .     A
C282   O45     1.395   .     S
C283   C284    1.397   .     A
C283   O46     1.396   .     S
C284   H94     1.084   .     S
C285   C286    1.397   .     A
C285   H95     1.084   .     S
C286   C287    1.412   .     A
C286   O47     1.395   .     S
C287   C288    1.397   .     A
C287   O48     1.396   .     S
C288   H96     1.084   .     S
O41    Cu6     1.812   .     S
O42    Cu6     1.812   .     S
O43    Cu5     1.812   1_545 S
O44    Cu5     1.812   1_545 S
O45    Zn6     1.800   .     S
O46    Zn6     1.801   .     S
O47    Zn27    1.800   .     S
O48    Zn27    1.801   .     S
C289   C290    1.411   .     A
C289   C294    1.394   .     A
C289   H97     1.084   .     S
C290   C291    1.435   .     A
C290   C325    1.405   .     A
C291   C292    1.411   .     A
C291   C328    1.405   .     A
C292   C293    1.394   .     A
C292   H98     1.084   .     S
C293   C294    1.359   .     A
C293   C296    1.377   .     A
C294   C295    1.377   .     A
C295   N49     1.359   .     A
C295   N56     1.338   .     A
N49    C296    1.359   .     A
N49    Ni7     1.895   .     S
C296   N50     1.338   .     A
N50    C297    1.338   .     A
C297   N51     1.359   .     A
C297   C300    1.377   .     A
N51    C298    1.359   .     A
N51    Ni7     1.895   .     S
C298   C299    1.377   .     A
C298   N53     1.338   .     A
C299   C300    1.359   .     A
C299   C308    1.394   .     A
C300   C305    1.394   .     A
N52    C301    1.359   .     A
N52    C304    1.359   .     A
N52    Ni7     1.895   .     S
C301   N53     1.338   .     A
C301   C302    1.377   .     A
C302   C303    1.358   .     A
C302   C312    1.394   .     A
C303   C304    1.377   .     A
C303   C309    1.394   .     A
C304   N55     1.338   .     A
C305   C306    1.411   .     A
C305   H99     1.084   .     S
C306   C307    1.435   .     A
C306   C329    1.405   .     A
C307   C308    1.411   .     A
C307   C332    1.405   .     A
C308   H100    1.084   .     S
C309   C310    1.412   .     A
C309   H101    1.084   .     S
C310   C311    1.432   .     A
C310   C333    1.403   .     A
C311   C312    1.411   .     A
C311   C336    1.403   .     A
C312   H102    1.084   .     S
N54    C313    1.359   .     A
N54    C316    1.359   .     A
N54    Ni7     1.895   .     S
C313   N55     1.338   .     A
C313   C314    1.377   .     A
C314   C315    1.358   .     A
C314   C320    1.394   .     A
C315   C316    1.377   .     A
C315   C317    1.394   .     A
C316   N56     1.338   .     A
C317   C318    1.411   .     A
C317   H103    1.084   .     S
C318   C319    1.432   .     A
C318   C321    1.403   .     A
C319   C320    1.412   .     A
C319   C324    1.403   .     A
C320   H104    1.084   .     S
C321   C322    1.397   .     A
C321   H105    1.084   .     S
C322   C323    1.412   .     A
C322   O49     1.395   .     S
C323   C324    1.397   .     A
C323   O50     1.396   .     S
C324   H106    1.084   .     S
C325   C326    1.396   .     A
C325   H107    1.083   .     S
C326   C327    1.374   .     A
C326   O51     1.381   .     S
C327   C328    1.396   .     A
C327   O52     1.381   .     S
C328   H108    1.083   .     S
C329   C330    1.396   .     A
C329   H109    1.083   .     S
C330   C331    1.374   .     A
C330   O53     1.381   .     S
C331   C332    1.396   .     A
C331   O54     1.381   .     S
C332   H110    1.083   .     S
C333   C334    1.397   .     A
C333   H111    1.084   .     S
C334   C335    1.412   .     A
C334   O55     1.396   .     S
C335   C336    1.397   .     A
C335   O56     1.395   .     S
C336   H112    1.084   .     S
O49    Zn28    1.800   .     S
O50    Zn28    1.801   .     S
O51    Cu7     1.812   1_545 S
O52    Cu7     1.812   1_545 S
O53    Cu6     1.812   1_655 S
O54    Cu6     1.812   1_655 S
O55    Zn7     1.801   .     S
O56    Zn7     1.800   .     S
C337   C338    1.412   .     A
C337   C342    1.394   .     A
C337   H113    1.084   .     S
C338   C339    1.432   .     A
C338   C373    1.403   .     A
C339   C340    1.411   .     A
C339   C376    1.403   .     A
C340   C341    1.394   .     A
C340   H114    1.084   .     S
C341   C342    1.358   .     A
C341   C344    1.377   .     A
C342   C343    1.377   .     A
C343   N57     1.359   .     A
C343   N64     1.338   .     A
N57    C344    1.359   .     A
N57    Ni8     1.895   .     S
C344   N58     1.338   .     A
N58    C345    1.338   .     A
C345   N59     1.359   .     A
C345   C348    1.377   .     A
N59    C346    1.359   .     A
N59    Ni8     1.895   .     S
C346   C347    1.377   .     A
C346   N61     1.338   .     A
C347   C348    1.359   .     A
C347   C356    1.394   .     A
C348   C353    1.394   .     A
N60    C349    1.359   .     A
N60    C352    1.359   .     A
N60    Ni8     1.895   .     S
C349   N61     1.338   .     A
C349   C350    1.377   .     A
C350   C351    1.359   .     A
C350   C360    1.394   .     A
C351   C352    1.377   .     A
C351   C357    1.394   .     A
C352   N63     1.338   .     A
C353   C354    1.411   .     A
C353   H115    1.084   .     S
C354   C355    1.435   .     A
C354   C377    1.405   .     A
C355   C356    1.411   .     A
C355   C380    1.405   .     A
C356   H116    1.084   .     S
C357   C358    1.411   .     A
C357   H117    1.084   .     S
C358   C359    1.435   .     A
C358   C381    1.405   .     A
C359   C360    1.411   .     A
C359   C384    1.405   .     A
C360   H118    1.084   .     S
N62    C361    1.359   .     A
N62    C364    1.359   .     A
N62    Ni8     1.895   .     S
C361   N63     1.338   .     A
C361   C362    1.377   .     A
C362   C363    1.358   .     A
C362   C368    1.394   .     A
C363   C364    1.377   .     A
C363   C365    1.394   .     A
C364   N64     1.338   .     A
C365   C366    1.412   .     A
C365   H119    1.084   .     S
C366   C367    1.432   .     A
C366   C369    1.403   .     A
C367   C368    1.411   .     A
C367   C372    1.403   .     A
C368   H120    1.084   .     S
C369   C370    1.397   .     A
C369   H121    1.084   .     S
C370   C371    1.412   .     A
C370   O57     1.396   .     S
C371   C372    1.397   .     A
C371   O58     1.395   .     S
C372   H122    1.084   .     S
C373   C374    1.397   .     A
C373   H123    1.084   .     S
C374   C375    1.412   .     A
C374   O59     1.396   .     S
C375   C376    1.397   .     A
C375   O60     1.395   .     S
C376   H124    1.084   .     S
C377   C378    1.396   .     A
C377   H125    1.083   .     S
C378   C379    1.374   .     A
C378   O61     1.381   .     S
C379   C380    1.396   .     A
C379   O62     1.381   .     S
C380   H126    1.083   .     S
C381   C382    1.396   .     A
C381   H127    1.083   .     S
C382   C383    1.374   .     A
C382   O63     1.381   .     S
C383   C384    1.396   .     A
C383   O64     1.381   .     S
C384   H128    1.083   .     S
O57    Zn8     1.801   .     S
O58    Zn8     1.800   .     S
O59    Zn25    1.801   .     S
O60    Zn25    1.800   .     S
O61    Cu8     1.812   1_655 S
O62    Cu8     1.812   1_655 S
O63    Cu7     1.812   .     S
O64    Cu7     1.812   .     S
C385   C386    1.412   .     A
C385   C390    1.394   .     A
C385   H129    1.084   .     S
C386   C387    1.432   .     A
C386   C421    1.403   .     A
C387   C388    1.411   .     A
C387   C424    1.403   .     A
C388   C389    1.394   .     A
C388   H130    1.084   .     S
C389   C390    1.358   .     A
C389   C392    1.377   .     A
C390   C391    1.377   .     A
C391   N65     1.359   .     A
C391   N72     1.338   .     A
N65    C392    1.359   .     A
N65    Ni9     1.895   .     S
C392   N66     1.338   .     A
N66    C393    1.338   .     A
C393   N67     1.359   .     A
C393   C396    1.377   .     A
N67    C394    1.359   .     A
N67    Ni9     1.895   .     S
C394   C395    1.377   .     A
C394   N69     1.338   .     A
C395   C396    1.359   .     A
C395   C404    1.394   .     A
C396   C401    1.394   .     A
N68    C397    1.359   .     A
N68    C400    1.359   .     A
N68    Ni9     1.895   .     S
C397   N69     1.338   .     A
C397   C398    1.377   .     A
C398   C399    1.359   .     A
C398   C408    1.394   .     A
C399   C400    1.377   .     A
C399   C405    1.394   .     A
C400   N71     1.338   .     A
C401   C402    1.411   .     A
C401   H131    1.084   .     S
C402   C403    1.435   .     A
C402   C425    1.405   .     A
C403   C404    1.411   .     A
C403   C428    1.405   .     A
C404   H132    1.084   .     S
C405   C406    1.411   .     A
C405   H133    1.084   .     S
C406   C407    1.435   .     A
C406   C429    1.405   .     A
C407   C408    1.411   .     A
C407   C432    1.405   .     A
C408   H134    1.084   .     S
N70    C409    1.359   .     A
N70    C412    1.359   .     A
N70    Ni9     1.895   .     S
C409   N71     1.338   .     A
C409   C410    1.377   .     A
C410   C411    1.358   .     A
C410   C416    1.394   .     A
C411   C412    1.377   .     A
C411   C413    1.394   .     A
C412   N72     1.338   .     A
C413   C414    1.412   .     A
C413   H135    1.084   .     S
C414   C415    1.432   .     A
C414   C417    1.403   .     A
C415   C416    1.411   .     A
C415   C420    1.403   .     A
C416   H136    1.084   .     S
C417   C418    1.397   .     A
C417   H137    1.084   .     S
C418   C419    1.412   .     A
C418   O65     1.396   .     S
C419   C420    1.397   .     A
C419   O66     1.395   .     S
C420   H138    1.084   .     S
C421   C422    1.397   .     A
C421   H139    1.084   .     S
C422   C423    1.412   .     A
C422   O67     1.396   .     S
C423   C424    1.397   .     A
C423   O68     1.395   .     S
C424   H140    1.084   .     S
C425   C426    1.396   .     A
C425   H141    1.083   .     S
C426   C427    1.374   .     A
C426   O69     1.381   .     S
C427   C428    1.396   .     A
C427   O70     1.381   .     S
C428   H142    1.083   .     S
C429   C430    1.396   .     A
C429   H143    1.083   .     S
C430   C431    1.374   .     A
C430   O71     1.381   .     S
C431   C432    1.396   .     A
C431   O72     1.381   .     S
C432   H144    1.083   .     S
O65    Zn9     1.801   .     S
O66    Zn9     1.800   .     S
O67    Zn45    1.801   .     S
O68    Zn45    1.800   .     S
O69    Cu9     1.812   .     S
O70    Cu9     1.812   .     S
O71    Cu23    1.812   1_545 S
O72    Cu23    1.812   1_545 S
C433   C434    1.411   .     A
C433   C438    1.394   .     A
C433   H145    1.084   .     S
C434   C435    1.435   .     A
C434   C469    1.405   .     A
C435   C436    1.411   .     A
C435   C472    1.405   .     A
C436   C437    1.394   .     A
C436   H146    1.084   .     S
C437   C438    1.359   .     A
C437   C440    1.377   .     A
C438   C439    1.377   .     A
C439   N73     1.359   .     A
C439   N80     1.338   .     A
N73    C440    1.359   .     A
N73    Ni10    1.895   .     S
C440   N74     1.338   .     A
N74    C441    1.338   .     A
C441   N75     1.359   .     A
C441   C444    1.377   .     A
N75    C442    1.359   .     A
N75    Ni10    1.895   .     S
C442   C443    1.377   .     A
C442   N77     1.338   .     A
C443   C444    1.359   .     A
C443   C452    1.394   .     A
C444   C449    1.394   .     A
N76    C445    1.359   .     A
N76    C448    1.359   .     A
N76    Ni10    1.895   .     S
C445   N77     1.338   .     A
C445   C446    1.377   .     A
C446   C447    1.358   .     A
C446   C456    1.394   .     A
C447   C448    1.377   .     A
C447   C453    1.394   .     A
C448   N79     1.338   .     A
C449   C450    1.411   .     A
C449   H147    1.084   .     S
C450   C451    1.435   .     A
C450   C473    1.405   .     A
C451   C452    1.411   .     A
C451   C476    1.405   .     A
C452   H148    1.084   .     S
C453   C454    1.412   .     A
C453   H149    1.084   .     S
C454   C455    1.432   .     A
C454   C477    1.403   .     A
C455   C456    1.411   .     A
C455   C480    1.403   .     A
C456   H150    1.084   .     S
N78    C457    1.359   .     A
N78    C460    1.359   .     A
N78    Ni10    1.895   .     S
C457   N79     1.338   .     A
C457   C458    1.377   .     A
C458   C459    1.358   .     A
C458   C464    1.394   .     A
C459   C460    1.377   .     A
C459   C461    1.394   .     A
C460   N80     1.338   .     A
C461   C462    1.411   .     A
C461   H151    1.084   .     S
C462   C463    1.432   .     A
C462   C465    1.403   .     A
C463   C464    1.412   .     A
C463   C468    1.403   .     A
C464   H152    1.084   .     S
C465   C466    1.397   .     A
C465   H153    1.084   .     S
C466   C467    1.412   .     A
C466   O73     1.395   .     S
C467   C468    1.397   .     A
C467   O74     1.396   .     S
C468   H154    1.084   .     S
C469   C470    1.396   .     A
C469   H155    1.083   .     S
C470   C471    1.374   .     A
C470   O75     1.381   .     S
C471   C472    1.396   .     A
C471   O76     1.381   .     S
C472   H156    1.083   .     S
C473   C474    1.396   .     A
C473   H157    1.083   .     S
C474   C475    1.374   .     A
C474   O77     1.381   .     S
C475   C476    1.396   .     A
C475   O78     1.381   .     S
C476   H158    1.083   .     S
C477   C478    1.397   .     A
C477   H159    1.084   .     S
C478   C479    1.412   .     A
C478   O79     1.396   .     S
C479   C480    1.397   .     A
C479   O80     1.395   .     S
C480   H160    1.084   .     S
O73    Zn42    1.800   .     S
O74    Zn42    1.801   .     S
O75    Cu10    1.812   1_554 S
O76    Cu10    1.812   1_554 S
O77    Cu17    1.812   .     S
O78    Cu17    1.812   .     S
O79    Zn10    1.801   .     S
O80    Zn10    1.800   .     S
C481   C482    1.411   .     A
C481   C486    1.394   .     A
C481   H161    1.084   .     S
C482   C483    1.432   .     A
C482   C517    1.403   .     A
C483   C484    1.412   .     A
C483   C520    1.403   .     A
C484   C485    1.394   .     A
C484   H162    1.084   .     S
C485   C486    1.358   .     A
C485   C488    1.377   .     A
C486   C487    1.377   .     A
C487   N81     1.359   .     A
C487   N88     1.338   .     A
N81    C488    1.359   .     A
N81    Ni11    1.895   .     S
C488   N82     1.338   .     A
N82    C489    1.338   .     A
C489   N83     1.359   .     A
C489   C492    1.377   .     A
N83    C490    1.359   .     A
N83    Ni11    1.895   .     S
C490   C491    1.377   .     A
C490   N85     1.338   .     A
C491   C492    1.358   .     A
C491   C500    1.394   .     A
C492   C497    1.394   .     A
N84    C493    1.359   .     A
N84    C496    1.359   .     A
N84    Ni11    1.895   .     S
C493   N85     1.338   .     A
C493   C494    1.377   .     A
C494   C495    1.359   .     A
C494   C504    1.394   .     A
C495   C496    1.377   .     A
C495   C501    1.394   .     A
C496   N87     1.338   .     A
C497   C498    1.412   .     A
C497   H163    1.084   .     S
C498   C499    1.432   .     A
C498   C521    1.403   .     A
C499   C500    1.411   .     A
C499   C524    1.403   .     A
C500   H164    1.084   .     S
C501   C502    1.411   .     A
C501   H165    1.084   .     S
C502   C503    1.435   .     A
C502   C525    1.405   .     A
C503   C504    1.411   .     A
C503   C528    1.405   .     A
C504   H166    1.084   .     S
N86    C505    1.359   .     A
N86    C508    1.359   .     A
N86    Ni11    1.895   .     S
C505   N87     1.338   .     A
C505   C506    1.377   .     A
C506   C507    1.359   .     A
C506   C512    1.394   .     A
C507   C508    1.377   .     A
C507   C509    1.394   .     A
C508   N88     1.338   .     A
C509   C510    1.411   .     A
C509   H167    1.084   .     S
C510   C511    1.435   .     A
C510   C513    1.405   .     A
C511   C512    1.411   .     A
C511   C516    1.405   .     A
C512   H168    1.084   .     S
C513   C514    1.396   .     A
C513   H169    1.083   .     S
C514   C515    1.374   .     A
C514   O81     1.381   .     S
C515   C516    1.396   .     A
C515   O82     1.381   .     S
C516   H170    1.083   .     S
C517   C518    1.397   .     A
C517   H171    1.084   .     S
C518   C519    1.412   .     A
C518   O83     1.395   .     S
C519   C520    1.397   .     A
C519   O84     1.396   .     S
C520   H172    1.084   .     S
C521   C522    1.397   .     A
C521   H173    1.084   .     S
C522   C523    1.412   .     A
C522   O85     1.396   .     S
C523   C524    1.397   .     A
C523   O86     1.395   .     S
C524   H174    1.084   .     S
C525   C526    1.396   .     A
C525   H175    1.083   .     S
C526   C527    1.374   .     A
C526   O87     1.381   .     S
C527   C528    1.396   .     A
C527   O88     1.381   .     S
C528   H176    1.083   .     S
O81    Cu11    1.812   .     S
O82    Cu11    1.812   .     S
O83    Zn43    1.800   .     S
O84    Zn43    1.801   .     S
O85    Zn11    1.801   .     S
O86    Zn11    1.800   .     S
O87    Cu24    1.812   .     S
O88    Cu24    1.812   .     S
C529   C530    1.412   .     A
C529   C534    1.394   .     A
C529   H177    1.084   .     S
C530   C531    1.432   .     A
C530   C565    1.403   .     A
C531   C532    1.411   .     A
C531   C568    1.403   .     A
C532   C533    1.394   .     A
C532   H178    1.084   .     S
C533   C534    1.358   .     A
C533   C536    1.377   .     A
C534   C535    1.377   .     A
C535   N89     1.359   .     A
C535   N96     1.338   .     A
N89    C536    1.359   .     A
N89    Ni12    1.895   .     S
C536   N90     1.338   .     A
N90    C537    1.338   .     A
C537   N91     1.359   .     A
C537   C540    1.377   .     A
N91    C538    1.359   .     A
N91    Ni12    1.895   .     S
C538   C539    1.377   .     A
C538   N93     1.338   .     A
C539   C540    1.359   .     A
C539   C548    1.394   .     A
C540   C545    1.394   .     A
N92    C541    1.359   .     A
N92    C544    1.359   .     A
N92    Ni12    1.895   .     S
C541   N93     1.338   .     A
C541   C542    1.377   .     A
C542   C543    1.359   .     A
C542   C552    1.394   .     A
C543   C544    1.377   .     A
C543   C549    1.394   .     A
C544   N95     1.338   .     A
C545   C546    1.411   .     A
C545   H179    1.084   .     S
C546   C547    1.435   .     A
C546   C569    1.405   .     A
C547   C548    1.411   .     A
C547   C572    1.405   .     A
C548   H180    1.084   .     S
C549   C550    1.411   .     A
C549   H181    1.084   .     S
C550   C551    1.435   .     A
C550   C573    1.405   .     A
C551   C552    1.411   .     A
C551   C576    1.405   .     A
C552   H182    1.084   .     S
N94    C553    1.359   .     A
N94    C556    1.359   .     A
N94    Ni12    1.895   .     S
C553   N95     1.338   .     A
C553   C554    1.377   .     A
C554   C555    1.358   .     A
C554   C560    1.394   .     A
C555   C556    1.377   .     A
C555   C557    1.394   .     A
C556   N96     1.338   .     A
C557   C558    1.412   .     A
C557   H183    1.084   .     S
C558   C559    1.432   .     A
C558   C561    1.403   .     A
C559   C560    1.411   .     A
C559   C564    1.403   .     A
C560   H184    1.084   .     S
C561   C562    1.397   .     A
C561   H185    1.084   .     S
C562   C563    1.412   .     A
C562   O89     1.396   .     S
C563   C564    1.397   .     A
C563   O90     1.395   .     S
C564   H186    1.084   .     S
C565   C566    1.397   .     A
C565   H187    1.084   .     S
C566   C567    1.412   .     A
C566   O91     1.396   .     S
C567   C568    1.397   .     A
C567   O92     1.395   .     S
C568   H188    1.084   .     S
C569   C570    1.396   .     A
C569   H189    1.083   .     S
C570   C571    1.374   .     A
C570   O93     1.381   .     S
C571   C572    1.396   .     A
C571   O94     1.381   .     S
C572   H190    1.083   .     S
C573   C574    1.396   .     A
C573   H191    1.083   .     S
C574   C575    1.374   .     A
C574   O95     1.381   .     S
C575   C576    1.396   .     A
C575   O96     1.381   .     S
C576   H192    1.083   .     S
O89    Zn44    1.801   .     S
O90    Zn44    1.800   .     S
O91    Zn12    1.801   .     S
O92    Zn12    1.800   .     S
O93    Cu22    1.812   .     S
O94    Cu22    1.812   .     S
O95    Cu12    1.812   .     S
O96    Cu12    1.812   .     S
C577   C578    1.411   .     A
C577   C582    1.394   .     A
C577   H193    1.084   .     S
C578   C579    1.435   .     A
C578   C613    1.405   .     A
C579   C580    1.411   .     A
C579   C616    1.405   .     A
C580   C581    1.394   .     A
C580   H194    1.084   .     S
C581   C582    1.359   .     A
C581   C584    1.377   .     A
C582   C583    1.377   .     A
C583   N97     1.359   .     A
C583   N104    1.338   .     A
N97    C584    1.359   .     A
N97    Ni13    1.895   .     S
C584   N98     1.338   .     A
N98    C585    1.338   .     A
C585   N99     1.359   .     A
C585   C588    1.377   .     A
N99    C586    1.359   .     A
N99    Ni13    1.895   .     S
C586   C587    1.377   .     A
C586   N101    1.338   .     A
C587   C588    1.358   .     A
C587   C596    1.394   .     A
C588   C593    1.394   .     A
N100   C589    1.359   .     A
N100   C592    1.359   .     A
N100   Ni13    1.895   .     S
C589   N101    1.338   .     A
C589   C590    1.377   .     A
C590   C591    1.358   .     A
C590   C600    1.394   .     A
C591   C592    1.377   .     A
C591   C597    1.394   .     A
C592   N103    1.338   .     A
C593   C594    1.411   .     A
C593   H195    1.084   .     S
C594   C595    1.432   .     A
C594   C617    1.403   .     A
C595   C596    1.412   .     A
C595   C620    1.403   .     A
C596   H196    1.084   .     S
C597   C598    1.411   .     A
C597   H197    1.084   .     S
C598   C599    1.432   .     A
C598   C621    1.403   .     A
C599   C600    1.412   .     A
C599   C624    1.403   .     A
C600   H198    1.084   .     S
N102   C601    1.359   .     A
N102   C604    1.359   .     A
N102   Ni13    1.895   .     S
C601   N103    1.338   .     A
C601   C602    1.377   .     A
C602   C603    1.359   .     A
C602   C608    1.394   .     A
C603   C604    1.377   .     A
C603   C605    1.394   .     A
C604   N104    1.338   .     A
C605   C606    1.411   .     A
C605   H199    1.084   .     S
C606   C607    1.435   .     A
C606   C609    1.405   .     A
C607   C608    1.411   .     A
C607   C612    1.405   .     A
C608   H200    1.084   .     S
C609   C610    1.396   .     A
C609   H201    1.083   .     S
C610   C611    1.374   .     A
C610   O97     1.381   .     S
C611   C612    1.396   .     A
C611   O98     1.381   .     S
C612   H202    1.083   .     S
C613   C614    1.396   .     A
C613   H203    1.083   .     S
C614   C615    1.374   .     A
C614   O99     1.381   .     S
C615   C616    1.396   .     A
C615   O100    1.381   .     S
C616   H204    1.083   .     S
C617   C618    1.397   .     A
C617   H205    1.084   .     S
C618   C619    1.412   .     A
C618   O101    1.395   .     S
C619   C620    1.397   .     A
C619   O102    1.396   .     S
C620   H206    1.084   .     S
C621   C622    1.397   .     A
C621   H207    1.084   .     S
C622   C623    1.412   .     A
C622   O103    1.395   .     S
C623   C624    1.397   .     A
C623   O104    1.396   .     S
C624   H208    1.084   .     S
O97    Cu13    1.812   1_556 S
O98    Cu13    1.812   1_556 S
O99    Cu19    1.812   .     S
O100   Cu19    1.812   .     S
O101   Zn13    1.800   .     S
O102   Zn13    1.801   .     S
O103   Zn48    1.800   .     S
O104   Zn48    1.801   .     S
C625   C626    1.411   .     A
C625   C630    1.394   .     A
C625   H209    1.084   .     S
C626   C627    1.432   .     A
C626   C661    1.403   .     A
C627   C628    1.412   .     A
C627   C664    1.403   .     A
C628   C629    1.394   .     A
C628   H210    1.084   .     S
C629   C630    1.358   .     A
C629   C632    1.377   .     A
C630   C631    1.377   .     A
C631   N105    1.359   .     A
C631   N112    1.338   .     A
N105   C632    1.359   .     A
N105   Ni14    1.895   .     S
C632   N106    1.338   .     A
N106   C633    1.338   .     A
C633   N107    1.359   .     A
C633   C636    1.377   .     A
N107   C634    1.359   .     A
N107   Ni14    1.895   .     S
C634   C635    1.377   .     A
C634   N109    1.338   .     A
C635   C636    1.358   .     A
C635   C644    1.394   .     A
C636   C641    1.394   .     A
N108   C637    1.359   .     A
N108   C640    1.359   .     A
N108   Ni14    1.895   .     S
C637   N109    1.338   .     A
C637   C638    1.377   .     A
C638   C639    1.359   .     A
C638   C648    1.394   .     A
C639   C640    1.377   .     A
C639   C645    1.394   .     A
C640   N111    1.338   .     A
C641   C642    1.412   .     A
C641   H211    1.084   .     S
C642   C643    1.432   .     A
C642   C665    1.403   .     A
C643   C644    1.411   .     A
C643   C668    1.403   .     A
C644   H212    1.084   .     S
C645   C646    1.411   .     A
C645   H213    1.084   .     S
C646   C647    1.435   .     A
C646   C669    1.405   .     A
C647   C648    1.411   .     A
C647   C672    1.405   .     A
C648   H214    1.084   .     S
N110   C649    1.359   .     A
N110   C652    1.359   .     A
N110   Ni14    1.895   .     S
C649   N111    1.338   .     A
C649   C650    1.377   .     A
C650   C651    1.359   .     A
C650   C656    1.394   .     A
C651   C652    1.377   .     A
C651   C653    1.394   .     A
C652   N112    1.338   .     A
C653   C654    1.411   .     A
C653   H215    1.084   .     S
C654   C655    1.435   .     A
C654   C657    1.405   .     A
C655   C656    1.411   .     A
C655   C660    1.405   .     A
C656   H216    1.084   .     S
C657   C658    1.396   .     A
C657   H217    1.083   .     S
C658   C659    1.374   .     A
C658   O105    1.381   .     S
C659   C660    1.396   .     A
C659   O106    1.381   .     S
C660   H218    1.083   .     S
C661   C662    1.397   .     A
C661   H219    1.084   .     S
C662   C663    1.412   .     A
C662   O107    1.395   .     S
C663   C664    1.397   .     A
C663   O108    1.396   .     S
C664   H220    1.084   .     S
C665   C666    1.397   .     A
C665   H221    1.084   .     S
C666   C667    1.412   .     A
C666   O109    1.396   .     S
C667   C668    1.397   .     A
C667   O110    1.395   .     S
C668   H222    1.084   .     S
C669   C670    1.396   .     A
C669   H223    1.083   .     S
C670   C671    1.374   .     A
C670   O111    1.381   .     S
C671   C672    1.396   .     A
C671   O112    1.381   .     S
C672   H224    1.083   .     S
O105   Cu20    1.812   .     S
O106   Cu20    1.812   .     S
O107   Zn14    1.800   .     S
O108   Zn14    1.801   .     S
O109   Zn46    1.801   .     S
O110   Zn46    1.800   .     S
O111   Cu14    1.812   1_556 S
O112   Cu14    1.812   1_556 S
C673   C674    1.411   .     A
C673   C678    1.394   .     A
C673   H225    1.084   .     S
C674   C675    1.435   .     A
C674   C709    1.405   .     A
C675   C676    1.411   .     A
C675   C712    1.405   .     A
C676   C677    1.394   .     A
C676   H226    1.084   .     S
C677   C678    1.359   .     A
C677   C680    1.377   .     A
C678   C679    1.377   .     A
C679   N113    1.359   .     A
C679   N120    1.338   .     A
N113   C680    1.359   .     A
N113   Ni15    1.895   .     S
C680   N114    1.338   .     A
N114   C681    1.338   .     A
C681   N115    1.359   .     A
C681   C684    1.377   .     A
N115   C682    1.359   .     A
N115   Ni15    1.895   .     S
C682   C683    1.377   .     A
C682   N117    1.338   .     A
C683   C684    1.359   .     A
C683   C692    1.394   .     A
C684   C689    1.394   .     A
N116   C685    1.359   .     A
N116   C688    1.359   .     A
N116   Ni15    1.895   .     S
C685   N117    1.338   .     A
C685   C686    1.377   .     A
C686   C687    1.358   .     A
C686   C696    1.394   .     A
C687   C688    1.377   .     A
C687   C693    1.394   .     A
C688   N119    1.338   .     A
C689   C690    1.411   .     A
C689   H227    1.084   .     S
C690   C691    1.435   .     A
C690   C713    1.405   .     A
C691   C692    1.411   .     A
C691   C716    1.405   .     A
C692   H228    1.084   .     S
C693   C694    1.412   .     A
C693   H229    1.084   .     S
C694   C695    1.432   .     A
C694   C717    1.403   .     A
C695   C696    1.411   .     A
C695   C720    1.403   .     A
C696   H230    1.084   .     S
N118   C697    1.359   .     A
N118   C700    1.359   .     A
N118   Ni15    1.895   .     S
C697   N119    1.338   .     A
C697   C698    1.377   .     A
C698   C699    1.358   .     A
C698   C704    1.394   .     A
C699   C700    1.377   .     A
C699   C701    1.394   .     A
C700   N120    1.338   .     A
C701   C702    1.411   .     A
C701   H231    1.084   .     S
C702   C703    1.432   .     A
C702   C705    1.403   .     A
C703   C704    1.412   .     A
C703   C708    1.403   .     A
C704   H232    1.084   .     S
C705   C706    1.397   .     A
C705   H233    1.084   .     S
C706   C707    1.412   .     A
C706   O113    1.395   .     S
C707   C708    1.397   .     A
C707   O114    1.396   .     S
C708   H234    1.084   .     S
C709   C710    1.396   .     A
C709   H235    1.083   .     S
C710   C711    1.374   .     A
C710   O115    1.381   .     S
C711   C712    1.396   .     A
C711   O116    1.381   .     S
C712   H236    1.083   .     S
C713   C714    1.396   .     A
C713   H237    1.083   .     S
C714   C715    1.374   .     A
C714   O117    1.381   .     S
C715   C716    1.396   .     A
C715   O118    1.381   .     S
C716   H238    1.083   .     S
C717   C718    1.397   .     A
C717   H239    1.084   .     S
C718   C719    1.412   .     A
C718   O119    1.396   .     S
C719   C720    1.397   .     A
C719   O120    1.395   .     S
C720   H240    1.084   .     S
O113   Zn15    1.800   .     S
O114   Zn15    1.801   .     S
O115   Cu21    1.812   1_545 S
O116   Cu21    1.812   1_545 S
O117   Cu15    1.812   .     S
O118   Cu15    1.812   .     S
O119   Zn47    1.801   .     S
O120   Zn47    1.800   .     S
C721   C722    1.412   .     A
C721   C726    1.394   .     A
C721   H241    1.084   .     S
C722   C723    1.432   .     A
C722   C757    1.403   .     A
C723   C724    1.411   .     A
C723   C760    1.403   .     A
C724   C725    1.394   .     A
C724   H242    1.084   .     S
C725   C726    1.358   .     A
C725   C728    1.377   .     A
C726   C727    1.377   .     A
C727   N121    1.359   .     A
C727   N128    1.338   .     A
N121   C728    1.359   .     A
N121   Ni16    1.895   .     S
C728   N122    1.338   .     A
N122   C729    1.338   .     A
C729   N123    1.359   .     A
C729   C732    1.377   .     A
N123   C730    1.359   .     A
N123   Ni16    1.895   .     S
C730   C731    1.377   .     A
C730   N125    1.338   .     A
C731   C732    1.359   .     A
C731   C740    1.394   .     A
C732   C737    1.394   .     A
N124   C733    1.359   .     A
N124   C736    1.359   .     A
N124   Ni16    1.895   .     S
C733   N125    1.338   .     A
C733   C734    1.377   .     A
C734   C735    1.359   .     A
C734   C744    1.394   .     A
C735   C736    1.377   .     A
C735   C741    1.394   .     A
C736   N127    1.338   .     A
C737   C738    1.411   .     A
C737   H243    1.084   .     S
C738   C739    1.435   .     A
C738   C761    1.405   .     A
C739   C740    1.411   .     A
C739   C764    1.405   .     A
C740   H244    1.084   .     S
C741   C742    1.411   .     A
C741   H245    1.084   .     S
C742   C743    1.435   .     A
C742   C765    1.405   .     A
C743   C744    1.411   .     A
C743   C768    1.405   .     A
C744   H246    1.084   .     S
N126   C745    1.359   .     A
N126   C748    1.359   .     A
N126   Ni16    1.895   .     S
C745   N127    1.338   .     A
C745   C746    1.377   .     A
C746   C747    1.358   .     A
C746   C752    1.394   .     A
C747   C748    1.377   .     A
C747   C749    1.394   .     A
C748   N128    1.338   .     A
C749   C750    1.412   .     A
C749   H247    1.084   .     S
C750   C751    1.432   .     A
C750   C753    1.403   .     A
C751   C752    1.411   .     A
C751   C756    1.403   .     A
C752   H248    1.084   .     S
C753   C754    1.397   .     A
C753   H249    1.084   .     S
C754   C755    1.412   .     A
C754   O121    1.396   .     S
C755   C756    1.397   .     A
C755   O122    1.395   .     S
C756   H250    1.084   .     S
C757   C758    1.397   .     A
C757   H251    1.084   .     S
C758   C759    1.412   .     A
C758   O123    1.396   .     S
C759   C760    1.397   .     A
C759   O124    1.395   .     S
C760   H252    1.084   .     S
C761   C762    1.396   .     A
C761   H253    1.083   .     S
C762   C763    1.374   .     A
C762   O125    1.381   .     S
C763   C764    1.396   .     A
C763   O126    1.381   .     S
C764   H254    1.083   .     S
C765   C766    1.396   .     A
C765   H255    1.083   .     S
C766   C767    1.374   .     A
C766   O127    1.381   .     S
C767   C768    1.396   .     A
C767   O128    1.381   .     S
C768   H256    1.083   .     S
O121   Zn41    1.801   .     S
O122   Zn41    1.800   .     S
O123   Zn16    1.801   .     S
O124   Zn16    1.800   .     S
O125   Cu18    1.812   1_655 S
O126   Cu18    1.812   1_655 S
O127   Cu16    1.812   .     S
O128   Cu16    1.812   .     S
C769   C770    1.412   .     A
C769   C774    1.394   .     A
C769   H257    1.084   .     S
C770   C771    1.432   .     A
C770   C805    1.403   .     A
C771   C772    1.411   .     A
C771   C808    1.403   .     A
C772   C773    1.394   .     A
C772   H258    1.084   .     S
C773   C774    1.358   .     A
C773   C776    1.377   .     A
C774   C775    1.377   .     A
C775   N129    1.359   .     A
C775   N136    1.338   .     A
N129   C776    1.359   .     A
N129   Ni17    1.895   .     S
C776   N130    1.338   .     A
N130   C777    1.338   .     A
C777   N131    1.359   .     A
C777   C780    1.377   .     A
N131   C778    1.359   .     A
N131   Ni17    1.895   .     S
C778   C779    1.377   .     A
C778   N133    1.338   .     A
C779   C780    1.359   .     A
C779   C788    1.394   .     A
C780   C785    1.394   .     A
N132   C781    1.359   .     A
N132   C784    1.359   .     A
N132   Ni17    1.895   .     S
C781   N133    1.338   .     A
C781   C782    1.377   .     A
C782   C783    1.359   .     A
C782   C792    1.394   .     A
C783   C784    1.377   .     A
C783   C789    1.394   .     A
C784   N135    1.338   .     A
C785   C786    1.411   .     A
C785   H259    1.084   .     S
C786   C787    1.435   .     A
C786   C809    1.405   .     A
C787   C788    1.411   .     A
C787   C812    1.405   .     A
C788   H260    1.084   .     S
C789   C790    1.411   .     A
C789   H261    1.084   .     S
C790   C791    1.435   .     A
C790   C813    1.405   .     A
C791   C792    1.411   .     A
C791   C816    1.405   .     A
C792   H262    1.084   .     S
N134   C793    1.359   .     A
N134   C796    1.359   .     A
N134   Ni17    1.895   .     S
C793   N135    1.338   .     A
C793   C794    1.377   .     A
C794   C795    1.358   .     A
C794   C800    1.394   .     A
C795   C796    1.377   .     A
C795   C797    1.394   .     A
C796   N136    1.338   .     A
C797   C798    1.412   .     A
C797   H263    1.084   .     S
C798   C799    1.432   .     A
C798   C801    1.403   .     A
C799   C800    1.411   .     A
C799   C804    1.403   .     A
C800   H264    1.084   .     S
C801   C802    1.397   .     A
C801   H265    1.084   .     S
C802   C803    1.412   .     A
C802   O129    1.396   .     S
C803   C804    1.397   .     A
C803   O130    1.395   .     S
C804   H266    1.084   .     S
C805   C806    1.397   .     A
C805   H267    1.084   .     S
C806   C807    1.412   .     A
C806   O131    1.396   .     S
C807   C808    1.397   .     A
C807   O132    1.395   .     S
C808   H268    1.084   .     S
C809   C810    1.396   .     A
C809   H269    1.083   .     S
C810   C811    1.374   .     A
C810   O133    1.381   .     S
C811   C812    1.396   .     A
C811   O134    1.381   .     S
C812   H270    1.083   .     S
C813   C814    1.396   .     A
C813   H271    1.083   .     S
C814   C815    1.374   .     A
C814   O135    1.381   .     S
C815   C816    1.396   .     A
C815   O136    1.381   .     S
C816   H272    1.083   .     S
O129   Zn17    1.801   .     S
O130   Zn17    1.800   .     S
O131   Zn40    1.801   .     S
O132   Zn40    1.800   .     S
O133   Cu17    1.812   1_455 S
O134   Cu17    1.812   1_455 S
O135   Cu14    1.812   .     S
O136   Cu14    1.812   .     S
C817   C818    1.411   .     A
C817   C822    1.394   .     A
C817   H273    1.084   .     S
C818   C819    1.435   .     A
C818   C853    1.405   .     A
C819   C820    1.411   .     A
C819   C856    1.405   .     A
C820   C821    1.394   .     A
C820   H274    1.084   .     S
C821   C822    1.359   .     A
C821   C824    1.377   .     A
C822   C823    1.377   .     A
C823   N137    1.359   .     A
C823   N144    1.338   .     A
N137   C824    1.359   .     A
N137   Ni18    1.895   .     S
C824   N138    1.338   .     A
N138   C825    1.338   .     A
C825   N139    1.359   .     A
C825   C828    1.377   .     A
N139   C826    1.359   .     A
N139   Ni18    1.895   .     S
C826   C827    1.377   .     A
C826   N141    1.338   .     A
C827   C828    1.359   .     A
C827   C836    1.394   .     A
C828   C833    1.394   .     A
N140   C829    1.359   .     A
N140   C832    1.359   .     A
N140   Ni18    1.895   .     S
C829   N141    1.338   .     A
C829   C830    1.377   .     A
C830   C831    1.358   .     A
C830   C840    1.394   .     A
C831   C832    1.377   .     A
C831   C837    1.394   .     A
C832   N143    1.338   .     A
C833   C834    1.411   .     A
C833   H275    1.084   .     S
C834   C835    1.435   .     A
C834   C857    1.405   .     A
C835   C836    1.411   .     A
C835   C860    1.405   .     A
C836   H276    1.084   .     S
C837   C838    1.412   .     A
C837   H277    1.084   .     S
C838   C839    1.432   .     A
C838   C861    1.403   .     A
C839   C840    1.411   .     A
C839   C864    1.403   .     A
C840   H278    1.084   .     S
N142   C841    1.359   .     A
N142   C844    1.359   .     A
N142   Ni18    1.895   .     S
C841   N143    1.338   .     A
C841   C842    1.377   .     A
C842   C843    1.358   .     A
C842   C848    1.394   .     A
C843   C844    1.377   .     A
C843   C845    1.394   .     A
C844   N144    1.338   .     A
C845   C846    1.411   .     A
C845   H279    1.084   .     S
C846   C847    1.432   .     A
C846   C849    1.403   .     A
C847   C848    1.412   .     A
C847   C852    1.403   .     A
C848   H280    1.084   .     S
C849   C850    1.397   .     A
C849   H281    1.084   .     S
C850   C851    1.412   .     A
C850   O137    1.395   .     S
C851   C852    1.397   .     A
C851   O138    1.396   .     S
C852   H282    1.084   .     S
C853   C854    1.396   .     A
C853   H283    1.083   .     S
C854   C855    1.374   .     A
C854   O139    1.381   .     S
C855   C856    1.396   .     A
C855   O140    1.381   .     S
C856   H284    1.083   .     S
C857   C858    1.396   .     A
C857   H285    1.083   .     S
C858   C859    1.374   .     A
C858   O141    1.381   .     S
C859   C860    1.396   .     A
C859   O142    1.381   .     S
C860   H286    1.083   .     S
C861   C862    1.397   .     A
C861   H287    1.084   .     S
C862   C863    1.412   .     A
C862   O143    1.396   .     S
C863   C864    1.397   .     A
C863   O144    1.395   .     S
C864   H288    1.084   .     S
O137   Zn18    1.800   .     S
O138   Zn18    1.801   .     S
O139   Cu12    1.812   1_556 S
O140   Cu12    1.812   1_556 S
O141   Cu18    1.812   .     S
O142   Cu18    1.812   .     S
O143   Zn34    1.801   .     S
O144   Zn34    1.800   .     S
C865   C866    1.411   .     A
C865   C870    1.394   .     A
C865   H289    1.084   .     S
C866   C867    1.435   .     A
C866   C901    1.405   .     A
C867   C868    1.411   .     A
C867   C904    1.405   .     A
C868   C869    1.394   .     A
C868   H290    1.084   .     S
C869   C870    1.359   .     A
C869   C872    1.377   .     A
C870   C871    1.377   .     A
C871   N145    1.359   .     A
C871   N152    1.338   .     A
N145   C872    1.359   .     A
N145   Ni19    1.895   .     S
C872   N146    1.338   .     A
N146   C873    1.338   .     A
C873   N147    1.359   .     A
C873   C876    1.377   .     A
N147   C874    1.359   .     A
N147   Ni19    1.895   .     S
C874   C875    1.377   .     A
C874   N149    1.338   .     A
C875   C876    1.359   .     A
C875   C884    1.394   .     A
C876   C881    1.394   .     A
N148   C877    1.359   .     A
N148   C880    1.359   .     A
N148   Ni19    1.895   .     S
C877   N149    1.338   .     A
C877   C878    1.377   .     A
C878   C879    1.358   .     A
C878   C888    1.394   .     A
C879   C880    1.377   .     A
C879   C885    1.394   .     A
C880   N151    1.338   .     A
C881   C882    1.411   .     A
C881   H291    1.084   .     S
C882   C883    1.435   .     A
C882   C905    1.405   .     A
C883   C884    1.411   .     A
C883   C908    1.405   .     A
C884   H292    1.084   .     S
C885   C886    1.412   .     A
C885   H293    1.084   .     S
C886   C887    1.432   .     A
C886   C909    1.403   .     A
C887   C888    1.411   .     A
C887   C912    1.403   .     A
C888   H294    1.084   .     S
N150   C889    1.359   .     A
N150   C892    1.359   .     A
N150   Ni19    1.895   .     S
C889   N151    1.338   .     A
C889   C890    1.377   .     A
C890   C891    1.358   .     A
C890   C896    1.394   .     A
C891   C892    1.377   .     A
C891   C893    1.394   .     A
C892   N152    1.338   .     A
C893   C894    1.411   .     A
C893   H295    1.084   .     S
C894   C895    1.432   .     A
C894   C897    1.403   .     A
C895   C896    1.412   .     A
C895   C900    1.403   .     A
C896   H296    1.084   .     S
C897   C898    1.397   .     A
C897   H297    1.084   .     S
C898   C899    1.412   .     A
C898   O145    1.395   .     S
C899   C900    1.397   .     A
C899   O146    1.396   .     S
C900   H298    1.084   .     S
C901   C902    1.396   .     A
C901   H299    1.083   .     S
C902   C903    1.374   .     A
C902   O147    1.381   .     S
C903   C904    1.396   .     A
C903   O148    1.381   .     S
C904   H300    1.083   .     S
C905   C906    1.396   .     A
C905   H301    1.083   .     S
C906   C907    1.374   .     A
C906   O149    1.381   .     S
C907   C908    1.396   .     A
C907   O150    1.381   .     S
C908   H302    1.083   .     S
C909   C910    1.397   .     A
C909   H303    1.084   .     S
C910   C911    1.412   .     A
C910   O151    1.396   .     S
C911   C912    1.397   .     A
C911   O152    1.395   .     S
C912   H304    1.084   .     S
O145   Zn35    1.800   .     S
O146   Zn35    1.801   .     S
O147   Cu19    1.812   1_545 S
O148   Cu19    1.812   1_545 S
O149   Cu9     1.812   1_556 S
O150   Cu9     1.812   1_556 S
O151   Zn19    1.801   .     S
O152   Zn19    1.800   .     S
C913   C914    1.412   .     A
C913   C918    1.394   .     A
C913   H305    1.084   .     S
C914   C915    1.432   .     A
C914   C949    1.403   .     A
C915   C916    1.411   .     A
C915   C952    1.403   .     A
C916   C917    1.394   .     A
C916   H306    1.084   .     S
C917   C918    1.358   .     A
C917   C920    1.377   .     A
C918   C919    1.377   .     A
C919   N153    1.359   .     A
C919   N160    1.338   .     A
N153   C920    1.359   .     A
N153   Ni20    1.895   .     S
C920   N154    1.338   .     A
N154   C921    1.338   .     A
C921   N155    1.359   .     A
C921   C924    1.377   .     A
N155   C922    1.359   .     A
N155   Ni20    1.895   .     S
C922   C923    1.377   .     A
C922   N157    1.338   .     A
C923   C924    1.359   .     A
C923   C932    1.394   .     A
C924   C929    1.394   .     A
N156   C925    1.359   .     A
N156   C928    1.359   .     A
N156   Ni20    1.895   .     S
C925   N157    1.338   .     A
C925   C926    1.377   .     A
C926   C927    1.359   .     A
C926   C936    1.394   .     A
C927   C928    1.377   .     A
C927   C933    1.394   .     A
C928   N159    1.338   .     A
C929   C930    1.411   .     A
C929   H307    1.084   .     S
C930   C931    1.435   .     A
C930   C953    1.405   .     A
C931   C932    1.411   .     A
C931   C956    1.405   .     A
C932   H308    1.084   .     S
C933   C934    1.411   .     A
C933   H309    1.084   .     S
C934   C935    1.435   .     A
C934   C957    1.405   .     A
C935   C936    1.411   .     A
C935   C960    1.405   .     A
C936   H310    1.084   .     S
N158   C937    1.359   .     A
N158   C940    1.359   .     A
N158   Ni20    1.895   .     S
C937   N159    1.338   .     A
C937   C938    1.377   .     A
C938   C939    1.358   .     A
C938   C944    1.394   .     A
C939   C940    1.377   .     A
C939   C941    1.394   .     A
C940   N160    1.338   .     A
C941   C942    1.412   .     A
C941   H311    1.084   .     S
C942   C943    1.432   .     A
C942   C945    1.403   .     A
C943   C944    1.411   .     A
C943   C948    1.403   .     A
C944   H312    1.084   .     S
C945   C946    1.397   .     A
C945   H313    1.084   .     S
C946   C947    1.412   .     A
C946   O153    1.396   .     S
C947   C948    1.397   .     A
C947   O154    1.395   .     S
C948   H314    1.084   .     S
C949   C950    1.397   .     A
C949   H315    1.084   .     S
C950   C951    1.412   .     A
C950   O155    1.396   .     S
C951   C952    1.397   .     A
C951   O156    1.395   .     S
C952   H316    1.084   .     S
C953   C954    1.396   .     A
C953   H317    1.083   .     S
C954   C955    1.374   .     A
C954   O157    1.381   .     S
C955   C956    1.396   .     A
C955   O158    1.381   .     S
C956   H318    1.083   .     S
C957   C958    1.396   .     A
C957   H319    1.083   .     S
C958   C959    1.374   .     A
C958   O159    1.381   .     S
C959   C960    1.396   .     A
C959   O160    1.381   .     S
C960   H320    1.083   .     S
O153   Zn20    1.801   .     S
O154   Zn20    1.800   .     S
O155   Zn36    1.801   .     S
O156   Zn36    1.800   .     S
O157   Cu20    1.812   1_655 S
O158   Cu20    1.812   1_655 S
O159   Cu10    1.812   .     S
O160   Cu10    1.812   .     S
C961   C962    1.412   .     A
C961   C966    1.394   .     A
C961   H321    1.084   .     S
C962   C963    1.432   .     A
C962   C997    1.403   .     A
C963   C964    1.411   .     A
C963   C1000   1.403   .     A
C964   C965    1.394   .     A
C964   H322    1.084   .     S
C965   C966    1.358   .     A
C965   C968    1.377   .     A
C966   C967    1.377   .     A
C967   N161    1.359   .     A
C967   N168    1.338   .     A
N161   C968    1.359   .     A
N161   Ni21    1.895   .     S
C968   N162    1.338   .     A
N162   C969    1.338   .     A
C969   N163    1.359   .     A
C969   C972    1.377   .     A
N163   C970    1.359   .     A
N163   Ni21    1.895   .     S
C970   C971    1.377   .     A
C970   N165    1.338   .     A
C971   C972    1.359   .     A
C971   C980    1.394   .     A
C972   C977    1.394   .     A
N164   C973    1.359   .     A
N164   C976    1.359   .     A
N164   Ni21    1.895   .     S
C973   N165    1.338   .     A
C973   C974    1.377   .     A
C974   C975    1.359   .     A
C974   C984    1.394   .     A
C975   C976    1.377   .     A
C975   C981    1.394   .     A
C976   N167    1.338   .     A
C977   C978    1.411   .     A
C977   H323    1.084   .     S
C978   C979    1.435   .     A
C978   C1001   1.405   .     A
C979   C980    1.411   .     A
C979   C1004   1.405   .     A
C980   H324    1.084   .     S
C981   C982    1.411   .     A
C981   H325    1.084   .     S
C982   C983    1.435   .     A
C982   C1005   1.405   .     A
C983   C984    1.411   .     A
C983   C1008   1.405   .     A
C984   H326    1.084   .     S
N166   C985    1.359   .     A
N166   C988    1.359   .     A
N166   Ni21    1.895   .     S
C985   N167    1.338   .     A
C985   C986    1.377   .     A
C986   C987    1.358   .     A
C986   C992    1.394   .     A
C987   C988    1.377   .     A
C987   C989    1.394   .     A
C988   N168    1.338   .     A
C989   C990    1.412   .     A
C989   H327    1.084   .     S
C990   C991    1.432   .     A
C990   C993    1.403   .     A
C991   C992    1.411   .     A
C991   C996    1.403   .     A
C992   H328    1.084   .     S
C993   C994    1.397   .     A
C993   H329    1.084   .     S
C994   C995    1.412   .     A
C994   O161    1.396   .     S
C995   C996    1.397   .     A
C995   O162    1.395   .     S
C996   H330    1.084   .     S
C997   C998    1.397   .     A
C997   H331    1.084   .     S
C998   C999    1.412   .     A
C998   O163    1.396   .     S
C999   C1000   1.397   .     A
C999   O164    1.395   .     S
C1000  H332    1.084   .     S
C1001  C1002   1.396   .     A
C1001  H333    1.083   .     S
C1002  C1003   1.374   .     A
C1002  O165    1.381   .     S
C1003  C1004   1.396   .     A
C1003  O166    1.381   .     S
C1004  H334    1.083   .     S
C1005  C1006   1.396   .     A
C1005  H335    1.083   .     S
C1006  C1007   1.374   .     A
C1006  O167    1.381   .     S
C1007  C1008   1.396   .     A
C1007  O168    1.381   .     S
C1008  H336    1.083   .     S
O161   Zn33    1.801   .     S
O162   Zn33    1.800   .     S
O163   Zn21    1.801   .     S
O164   Zn21    1.800   .     S
O165   Cu11    1.812   1_556 S
O166   Cu11    1.812   1_556 S
O167   Cu21    1.812   .     S
O168   Cu21    1.812   .     S
C1009  C1010   1.411   .     A
C1009  C1014   1.394   .     A
C1009  H337    1.084   .     S
C1010  C1011   1.435   .     A
C1010  C1045   1.405   .     A
C1011  C1012   1.411   .     A
C1011  C1048   1.405   .     A
C1012  C1013   1.394   .     A
C1012  H338    1.084   .     S
C1013  C1014   1.359   .     A
C1013  C1016   1.377   .     A
C1014  C1015   1.377   .     A
C1015  N169    1.359   .     A
C1015  N176    1.338   .     A
N169   C1016   1.359   .     A
N169   Ni22    1.895   .     S
C1016  N170    1.338   .     A
N170   C1017   1.338   .     A
C1017  N171    1.359   .     A
C1017  C1020   1.377   .     A
N171   C1018   1.359   .     A
N171   Ni22    1.895   .     S
C1018  C1019   1.377   .     A
C1018  N173    1.338   .     A
C1019  C1020   1.359   .     A
C1019  C1028   1.394   .     A
C1020  C1025   1.394   .     A
N172   C1021   1.359   .     A
N172   C1024   1.359   .     A
N172   Ni22    1.895   .     S
C1021  N173    1.338   .     A
C1021  C1022   1.377   .     A
C1022  C1023   1.358   .     A
C1022  C1032   1.394   .     A
C1023  C1024   1.377   .     A
C1023  C1029   1.394   .     A
C1024  N175    1.338   .     A
C1025  C1026   1.411   .     A
C1025  H339    1.084   .     S
C1026  C1027   1.435   .     A
C1026  C1049   1.405   .     A
C1027  C1028   1.411   .     A
C1027  C1052   1.405   .     A
C1028  H340    1.084   .     S
C1029  C1030   1.412   .     A
C1029  H341    1.084   .     S
C1030  C1031   1.432   .     A
C1030  C1053   1.403   .     A
C1031  C1032   1.411   .     A
C1031  C1056   1.403   .     A
C1032  H342    1.084   .     S
N174   C1033   1.359   .     A
N174   C1036   1.359   .     A
N174   Ni22    1.895   .     S
C1033  N175    1.338   .     A
C1033  C1034   1.377   .     A
C1034  C1035   1.358   .     A
C1034  C1040   1.394   .     A
C1035  C1036   1.377   .     A
C1035  C1037   1.394   .     A
C1036  N176    1.338   .     A
C1037  C1038   1.411   .     A
C1037  H343    1.084   .     S
C1038  C1039   1.432   .     A
C1038  C1041   1.403   .     A
C1039  C1040   1.412   .     A
C1039  C1044   1.403   .     A
C1040  H344    1.084   .     S
C1041  C1042   1.397   .     A
C1041  H345    1.084   .     S
C1042  C1043   1.412   .     A
C1042  O169    1.395   .     S
C1043  C1044   1.397   .     A
C1043  O170    1.396   .     S
C1044  H346    1.084   .     S
C1045  C1046   1.396   .     A
C1045  H347    1.083   .     S
C1046  C1047   1.374   .     A
C1046  O171    1.381   .     S
C1047  C1048   1.396   .     A
C1047  O172    1.381   .     S
C1048  H348    1.083   .     S
C1049  C1050   1.396   .     A
C1049  H349    1.083   .     S
C1050  C1051   1.374   .     A
C1050  O173    1.381   .     S
C1051  C1052   1.396   .     A
C1051  O174    1.381   .     S
C1052  H350    1.083   .     S
C1053  C1054   1.397   .     A
C1053  H351    1.084   .     S
C1054  C1055   1.412   .     A
C1054  O175    1.396   .     S
C1055  C1056   1.397   .     A
C1055  O176    1.395   .     S
C1056  H352    1.084   .     S
O169   Zn22    1.800   .     S
O170   Zn22    1.801   .     S
O171   Cu16    1.812   1_554 S
O172   Cu16    1.812   1_554 S
O173   Cu22    1.812   1_655 S
O174   Cu22    1.812   1_655 S
O175   Zn38    1.801   .     S
O176   Zn38    1.800   .     S
C1057  C1058   1.411   .     A
C1057  C1062   1.394   .     A
C1057  H353    1.084   .     S
C1058  C1059   1.432   .     A
C1058  C1093   1.403   .     A
C1059  C1060   1.412   .     A
C1059  C1096   1.403   .     A
C1060  C1061   1.394   .     A
C1060  H354    1.084   .     S
C1061  C1062   1.358   .     A
C1061  C1064   1.377   .     A
C1062  C1063   1.377   .     A
C1063  N177    1.359   .     A
C1063  N184    1.338   .     A
N177   C1064   1.359   .     A
N177   Ni23    1.895   .     S
C1064  N178    1.338   .     A
N178   C1065   1.338   .     A
C1065  N179    1.359   .     A
C1065  C1068   1.377   .     A
N179   C1066   1.359   .     A
N179   Ni23    1.895   .     S
C1066  C1067   1.377   .     A
C1066  N181    1.338   .     A
C1067  C1068   1.358   .     A
C1067  C1076   1.394   .     A
C1068  C1073   1.394   .     A
N180   C1069   1.359   .     A
N180   C1072   1.359   .     A
N180   Ni23    1.895   .     S
C1069  N181    1.338   .     A
C1069  C1070   1.377   .     A
C1070  C1071   1.359   .     A
C1070  C1080   1.394   .     A
C1071  C1072   1.377   .     A
C1071  C1077   1.394   .     A
C1072  N183    1.338   .     A
C1073  C1074   1.412   .     A
C1073  H355    1.084   .     S
C1074  C1075   1.432   .     A
C1074  C1097   1.403   .     A
C1075  C1076   1.411   .     A
C1075  C1100   1.403   .     A
C1076  H356    1.084   .     S
C1077  C1078   1.411   .     A
C1077  H357    1.084   .     S
C1078  C1079   1.435   .     A
C1078  C1101   1.405   .     A
C1079  C1080   1.411   .     A
C1079  C1104   1.405   .     A
C1080  H358    1.084   .     S
N182   C1081   1.359   .     A
N182   C1084   1.359   .     A
N182   Ni23    1.895   .     S
C1081  N183    1.338   .     A
C1081  C1082   1.377   .     A
C1082  C1083   1.359   .     A
C1082  C1088   1.394   .     A
C1083  C1084   1.377   .     A
C1083  C1085   1.394   .     A
C1084  N184    1.338   .     A
C1085  C1086   1.411   .     A
C1085  H359    1.084   .     S
C1086  C1087   1.435   .     A
C1086  C1089   1.405   .     A
C1087  C1088   1.411   .     A
C1087  C1092   1.405   .     A
C1088  H360    1.084   .     S
C1089  C1090   1.396   .     A
C1089  H361    1.083   .     S
C1090  C1091   1.374   .     A
C1090  O177    1.381   .     S
C1091  C1092   1.396   .     A
C1091  O178    1.381   .     S
C1092  H362    1.083   .     S
C1093  C1094   1.397   .     A
C1093  H363    1.084   .     S
C1094  C1095   1.412   .     A
C1094  O179    1.395   .     S
C1095  C1096   1.397   .     A
C1095  O180    1.396   .     S
C1096  H364    1.084   .     S
C1097  C1098   1.397   .     A
C1097  H365    1.084   .     S
C1098  C1099   1.412   .     A
C1098  O181    1.396   .     S
C1099  C1100   1.397   .     A
C1099  O182    1.395   .     S
C1100  H366    1.084   .     S
C1101  C1102   1.396   .     A
C1101  H367    1.083   .     S
C1102  C1103   1.374   .     A
C1102  O183    1.381   .     S
C1103  C1104   1.396   .     A
C1103  O184    1.381   .     S
C1104  H368    1.083   .     S
O177   Cu13    1.812   .     S
O178   Cu13    1.812   .     S
O179   Zn23    1.800   .     S
O180   Zn23    1.801   .     S
O181   Zn39    1.801   .     S
O182   Zn39    1.800   .     S
O183   Cu23    1.812   .     S
O184   Cu23    1.812   .     S
C1105  C1106   1.412   .     A
C1105  C1110   1.394   .     A
C1105  H369    1.084   .     S
C1106  C1107   1.432   .     A
C1106  C1141   1.403   .     A
C1107  C1108   1.411   .     A
C1107  C1144   1.403   .     A
C1108  C1109   1.394   .     A
C1108  H370    1.084   .     S
C1109  C1110   1.358   .     A
C1109  C1112   1.377   .     A
C1110  C1111   1.377   .     A
C1111  N185    1.359   .     A
C1111  N192    1.338   .     A
N185   C1112   1.359   .     A
N185   Ni24    1.895   .     S
C1112  N186    1.338   .     A
N186   C1113   1.338   .     A
C1113  N187    1.359   .     A
C1113  C1116   1.377   .     A
N187   C1114   1.359   .     A
N187   Ni24    1.895   .     S
C1114  C1115   1.377   .     A
C1114  N189    1.338   .     A
C1115  C1116   1.359   .     A
C1115  C1124   1.394   .     A
C1116  C1121   1.394   .     A
N188   C1117   1.359   .     A
N188   C1120   1.359   .     A
N188   Ni24    1.895   .     S
C1117  N189    1.338   .     A
C1117  C1118   1.377   .     A
C1118  C1119   1.359   .     A
C1118  C1128   1.394   .     A
C1119  C1120   1.377   .     A
C1119  C1125   1.394   .     A
C1120  N191    1.338   .     A
C1121  C1122   1.411   .     A
C1121  H371    1.084   .     S
C1122  C1123   1.435   .     A
C1122  C1145   1.405   .     A
C1123  C1124   1.411   .     A
C1123  C1148   1.405   .     A
C1124  H372    1.084   .     S
C1125  C1126   1.411   .     A
C1125  H373    1.084   .     S
C1126  C1127   1.435   .     A
C1126  C1149   1.405   .     A
C1127  C1128   1.411   .     A
C1127  C1152   1.405   .     A
C1128  H374    1.084   .     S
N190   C1129   1.359   .     A
N190   C1132   1.359   .     A
N190   Ni24    1.895   .     S
C1129  N191    1.338   .     A
C1129  C1130   1.377   .     A
C1130  C1131   1.358   .     A
C1130  C1136   1.394   .     A
C1131  C1132   1.377   .     A
C1131  C1133   1.394   .     A
C1132  N192    1.338   .     A
C1133  C1134   1.412   .     A
C1133  H375    1.084   .     S
C1134  C1135   1.432   .     A
C1134  C1137   1.403   .     A
C1135  C1136   1.411   .     A
C1135  C1140   1.403   .     A
C1136  H376    1.084   .     S
C1137  C1138   1.397   .     A
C1137  H377    1.084   .     S
C1138  C1139   1.412   .     A
C1138  O185    1.396   .     S
C1139  C1140   1.397   .     A
C1139  O186    1.395   .     S
C1140  H378    1.084   .     S
C1141  C1142   1.397   .     A
C1141  H379    1.084   .     S
C1142  C1143   1.412   .     A
C1142  O187    1.396   .     S
C1143  C1144   1.397   .     A
C1143  O188    1.395   .     S
C1144  H380    1.084   .     S
C1145  C1146   1.396   .     A
C1145  H381    1.083   .     S
C1146  C1147   1.374   .     A
C1146  O189    1.381   .     S
C1147  C1148   1.396   .     A
C1147  O190    1.381   .     S
C1148  H382    1.083   .     S
C1149  C1150   1.396   .     A
C1149  H383    1.083   .     S
C1150  C1151   1.374   .     A
C1150  O191    1.381   .     S
C1151  C1152   1.396   .     A
C1151  O192    1.381   .     S
C1152  H384    1.083   .     S
O185   Zn37    1.801   .     S
O186   Zn37    1.800   .     S
O187   Zn24    1.801   .     S
O188   Zn24    1.800   .     S
O189   Cu15    1.812   1_554 S
O190   Cu15    1.812   1_554 S
O191   Cu24    1.812   1_545 S
O192   Cu24    1.812   1_545 S
C1153  C1154   1.411   .     A
C1153  C1158   1.394   .     A
C1153  H385    1.084   .     S
C1154  C1155   1.435   .     A
C1154  C1189   1.405   .     A
C1155  C1156   1.411   .     A
C1155  C1192   1.405   .     A
C1156  C1157   1.394   .     A
C1156  H386    1.084   .     S
C1157  C1158   1.359   .     A
C1157  C1160   1.377   .     A
C1158  C1159   1.377   .     A
C1159  N193    1.359   .     A
C1159  N200    1.338   .     A
N193   C1160   1.359   .     A
N193   Ni25    1.895   .     S
C1160  N194    1.338   .     A
N194   C1161   1.338   .     A
C1161  N195    1.359   .     A
C1161  C1164   1.377   .     A
N195   C1162   1.359   .     A
N195   Ni25    1.895   .     S
C1162  C1163   1.377   .     A
C1162  N197    1.338   .     A
C1163  C1164   1.358   .     A
C1163  C1172   1.394   .     A
C1164  C1169   1.394   .     A
N196   C1165   1.359   .     A
N196   C1168   1.359   .     A
N196   Ni25    1.895   .     S
C1165  N197    1.338   .     A
C1165  C1166   1.377   .     A
C1166  C1167   1.358   .     A
C1166  C1176   1.394   .     A
C1167  C1168   1.377   .     A
C1167  C1173   1.394   .     A
C1168  N199    1.338   .     A
C1169  C1170   1.411   .     A
C1169  H387    1.084   .     S
C1170  C1171   1.432   .     A
C1170  C1193   1.403   .     A
C1171  C1172   1.412   .     A
C1171  C1196   1.403   .     A
C1172  H388    1.084   .     S
C1173  C1174   1.411   .     A
C1173  H389    1.084   .     S
C1174  C1175   1.432   .     A
C1174  C1197   1.403   .     A
C1175  C1176   1.412   .     A
C1175  C1200   1.403   .     A
C1176  H390    1.084   .     S
N198   C1177   1.359   .     A
N198   C1180   1.359   .     A
N198   Ni25    1.895   .     S
C1177  N199    1.338   .     A
C1177  C1178   1.377   .     A
C1178  C1179   1.359   .     A
C1178  C1184   1.394   .     A
C1179  C1180   1.377   .     A
C1179  C1181   1.394   .     A
C1180  N200    1.338   .     A
C1181  C1182   1.411   .     A
C1181  H391    1.084   .     S
C1182  C1183   1.435   .     A
C1182  C1185   1.405   .     A
C1183  C1184   1.411   .     A
C1183  C1188   1.405   .     A
C1184  H392    1.084   .     S
C1185  C1186   1.396   .     A
C1185  H393    1.083   .     S
C1186  C1187   1.374   .     A
C1186  O193    1.381   .     S
C1187  C1188   1.396   .     A
C1187  O194    1.381   .     S
C1188  H394    1.083   .     S
C1189  C1190   1.396   .     A
C1189  H395    1.083   .     S
C1190  C1191   1.374   .     A
C1190  O195    1.381   .     S
C1191  C1192   1.396   .     A
C1191  O196    1.381   .     S
C1192  H396    1.083   .     S
C1193  C1194   1.397   .     A
C1193  H397    1.084   .     S
C1194  C1195   1.412   .     A
C1194  O197    1.395   .     S
C1195  C1196   1.397   .     A
C1195  O198    1.396   .     S
C1196  H398    1.084   .     S
C1197  C1198   1.397   .     A
C1197  H399    1.084   .     S
C1198  C1199   1.412   .     A
C1198  O199    1.395   .     S
C1199  C1200   1.397   .     A
C1199  O200    1.396   .     S
C1200  H400    1.084   .     S
O193   Cu26    1.812   .     S
O194   Cu26    1.812   .     S
O195   Cu25    1.812   .     S
O196   Cu25    1.812   .     S
O197   Zn41    1.800   .     S
O198   Zn41    1.801   .     S
O199   Zn21    1.800   .     S
O200   Zn21    1.801   .     S
C1201  C1202   1.411   .     A
C1201  C1206   1.394   .     A
C1201  H401    1.084   .     S
C1202  C1203   1.435   .     A
C1202  C1237   1.405   .     A
C1203  C1204   1.411   .     A
C1203  C1240   1.405   .     A
C1204  C1205   1.394   .     A
C1204  H402    1.084   .     S
C1205  C1206   1.359   .     A
C1205  C1208   1.377   .     A
C1206  C1207   1.377   .     A
C1207  N201    1.359   .     A
C1207  N208    1.338   .     A
N201   C1208   1.359   .     A
N201   Ni26    1.895   .     S
C1208  N202    1.338   .     A
N202   C1209   1.338   .     A
C1209  N203    1.359   .     A
C1209  C1212   1.377   .     A
N203   C1210   1.359   .     A
N203   Ni26    1.895   .     S
C1210  C1211   1.377   .     A
C1210  N205    1.338   .     A
C1211  C1212   1.359   .     A
C1211  C1220   1.394   .     A
C1212  C1217   1.394   .     A
N204   C1213   1.359   .     A
N204   C1216   1.359   .     A
N204   Ni26    1.895   .     S
C1213  N205    1.338   .     A
C1213  C1214   1.377   .     A
C1214  C1215   1.358   .     A
C1214  C1224   1.394   .     A
C1215  C1216   1.377   .     A
C1215  C1221   1.394   .     A
C1216  N207    1.338   .     A
C1217  C1218   1.411   .     A
C1217  H403    1.084   .     S
C1218  C1219   1.435   .     A
C1218  C1241   1.405   .     A
C1219  C1220   1.411   .     A
C1219  C1244   1.405   .     A
C1220  H404    1.084   .     S
C1221  C1222   1.412   .     A
C1221  H405    1.084   .     S
C1222  C1223   1.432   .     A
C1222  C1245   1.403   .     A
C1223  C1224   1.411   .     A
C1223  C1248   1.403   .     A
C1224  H406    1.084   .     S
N206   C1225   1.359   .     A
N206   C1228   1.359   .     A
N206   Ni26    1.895   .     S
C1225  N207    1.338   .     A
C1225  C1226   1.377   .     A
C1226  C1227   1.358   .     A
C1226  C1232   1.394   .     A
C1227  C1228   1.377   .     A
C1227  C1229   1.394   .     A
C1228  N208    1.338   .     A
C1229  C1230   1.411   .     A
C1229  H407    1.084   .     S
C1230  C1231   1.432   .     A
C1230  C1233   1.403   .     A
C1231  C1232   1.412   .     A
C1231  C1236   1.403   .     A
C1232  H408    1.084   .     S
C1233  C1234   1.397   .     A
C1233  H409    1.084   .     S
C1234  C1235   1.412   .     A
C1234  O201    1.395   .     S
C1235  C1236   1.397   .     A
C1235  O202    1.396   .     S
C1236  H410    1.084   .     S
C1237  C1238   1.396   .     A
C1237  H411    1.083   .     S
C1238  C1239   1.374   .     A
C1238  O203    1.381   .     S
C1239  C1240   1.396   .     A
C1239  O204    1.381   .     S
C1240  H412    1.083   .     S
C1241  C1242   1.396   .     A
C1241  H413    1.083   .     S
C1242  C1243   1.374   .     A
C1242  O205    1.381   .     S
C1243  C1244   1.396   .     A
C1243  O206    1.381   .     S
C1244  H414    1.083   .     S
C1245  C1246   1.397   .     A
C1245  H415    1.084   .     S
C1246  C1247   1.412   .     A
C1246  O207    1.396   .     S
C1247  C1248   1.397   .     A
C1247  O208    1.395   .     S
C1248  H416    1.084   .     S
O201   Zn18    1.800   .     S
O202   Zn18    1.801   .     S
O203   Cu27    1.812   .     S
O204   Cu27    1.812   .     S
O205   Cu26    1.812   .     S
O206   Cu26    1.812   .     S
O207   Zn48    1.801   .     S
O208   Zn48    1.800   .     S
C1249  C1250   1.412   .     A
C1249  C1254   1.394   .     A
C1249  H417    1.084   .     S
C1250  C1251   1.432   .     A
C1250  C1285   1.403   .     A
C1251  C1252   1.411   .     A
C1251  C1288   1.403   .     A
C1252  C1253   1.394   .     A
C1252  H418    1.084   .     S
C1253  C1254   1.358   .     A
C1253  C1256   1.377   .     A
C1254  C1255   1.377   .     A
C1255  N209    1.359   .     A
C1255  N216    1.338   .     A
N209   C1256   1.359   .     A
N209   Ni27    1.895   .     S
C1256  N210    1.338   .     A
N210   C1257   1.338   .     A
C1257  N211    1.359   .     A
C1257  C1260   1.377   .     A
N211   C1258   1.359   .     A
N211   Ni27    1.895   .     S
C1258  C1259   1.377   .     A
C1258  N213    1.338   .     A
C1259  C1260   1.359   .     A
C1259  C1268   1.394   .     A
C1260  C1265   1.394   .     A
N212   C1261   1.359   .     A
N212   C1264   1.359   .     A
N212   Ni27    1.895   .     S
C1261  N213    1.338   .     A
C1261  C1262   1.377   .     A
C1262  C1263   1.359   .     A
C1262  C1272   1.394   .     A
C1263  C1264   1.377   .     A
C1263  C1269   1.394   .     A
C1264  N215    1.338   .     A
C1265  C1266   1.411   .     A
C1265  H419    1.084   .     S
C1266  C1267   1.435   .     A
C1266  C1289   1.405   .     A
C1267  C1268   1.411   .     A
C1267  C1292   1.405   .     A
C1268  H420    1.084   .     S
C1269  C1270   1.411   .     A
C1269  H421    1.084   .     S
C1270  C1271   1.435   .     A
C1270  C1293   1.405   .     A
C1271  C1272   1.411   .     A
C1271  C1296   1.405   .     A
C1272  H422    1.084   .     S
N214   C1273   1.359   .     A
N214   C1276   1.359   .     A
N214   Ni27    1.895   .     S
C1273  N215    1.338   .     A
C1273  C1274   1.377   .     A
C1274  C1275   1.358   .     A
C1274  C1280   1.394   .     A
C1275  C1276   1.377   .     A
C1275  C1277   1.394   .     A
C1276  N216    1.338   .     A
C1277  C1278   1.412   .     A
C1277  H423    1.084   .     S
C1278  C1279   1.432   .     A
C1278  C1281   1.403   .     A
C1279  C1280   1.411   .     A
C1279  C1284   1.403   .     A
C1280  H424    1.084   .     S
C1281  C1282   1.397   .     A
C1281  H425    1.084   .     S
C1282  C1283   1.412   .     A
C1282  O209    1.396   .     S
C1283  C1284   1.397   .     A
C1283  O210    1.395   .     S
C1284  H426    1.084   .     S
C1285  C1286   1.397   .     A
C1285  H427    1.084   .     S
C1286  C1287   1.412   .     A
C1286  O211    1.396   .     S
C1287  C1288   1.397   .     A
C1287  O212    1.395   .     S
C1288  H428    1.084   .     S
C1289  C1290   1.396   .     A
C1289  H429    1.083   .     S
C1290  C1291   1.374   .     A
C1290  O213    1.381   .     S
C1291  C1292   1.396   .     A
C1291  O214    1.381   .     S
C1292  H430    1.083   .     S
C1293  C1294   1.396   .     A
C1293  H431    1.083   .     S
C1294  C1295   1.374   .     A
C1294  O215    1.381   .     S
C1295  C1296   1.396   .     A
C1295  O216    1.381   .     S
C1296  H432    1.083   .     S
O209   Zn46    1.801   .     S
O210   Zn46    1.800   .     S
O211   Zn19    1.801   .     S
O212   Zn19    1.800   .     S
O213   Cu28    1.812   .     S
O214   Cu28    1.812   .     S
O215   Cu27    1.812   .     S
O216   Cu27    1.812   .     S
C1297  C1298   1.411   .     A
C1297  C1302   1.394   .     A
C1297  H433    1.084   .     S
C1298  C1299   1.432   .     A
C1298  C1333   1.403   .     A
C1299  C1300   1.412   .     A
C1299  C1336   1.403   .     A
C1300  C1301   1.394   .     A
C1300  H434    1.084   .     S
C1301  C1302   1.358   .     A
C1301  C1304   1.377   .     A
C1302  C1303   1.377   .     A
C1303  N217    1.359   .     A
C1303  N224    1.338   .     A
N217   C1304   1.359   .     A
N217   Ni28    1.895   .     S
C1304  N218    1.338   .     A
N218   C1305   1.338   .     A
C1305  N219    1.359   .     A
C1305  C1308   1.377   .     A
N219   C1306   1.359   .     A
N219   Ni28    1.895   .     S
C1306  C1307   1.377   .     A
C1306  N221    1.338   .     A
C1307  C1308   1.358   .     A
C1307  C1316   1.394   .     A
C1308  C1313   1.394   .     A
N220   C1309   1.359   .     A
N220   C1312   1.359   .     A
N220   Ni28    1.895   .     S
C1309  N221    1.338   .     A
C1309  C1310   1.377   .     A
C1310  C1311   1.359   .     A
C1310  C1320   1.394   .     A
C1311  C1312   1.377   .     A
C1311  C1317   1.394   .     A
C1312  N223    1.338   .     A
C1313  C1314   1.412   .     A
C1313  H435    1.084   .     S
C1314  C1315   1.432   .     A
C1314  C1337   1.403   .     A
C1315  C1316   1.411   .     A
C1315  C1340   1.403   .     A
C1316  H436    1.084   .     S
C1317  C1318   1.411   .     A
C1317  H437    1.084   .     S
C1318  C1319   1.435   .     A
C1318  C1341   1.405   .     A
C1319  C1320   1.411   .     A
C1319  C1344   1.405   .     A
C1320  H438    1.084   .     S
N222   C1321   1.359   .     A
N222   C1324   1.359   .     A
N222   Ni28    1.895   .     S
C1321  N223    1.338   .     A
C1321  C1322   1.377   .     A
C1322  C1323   1.359   .     A
C1322  C1328   1.394   .     A
C1323  C1324   1.377   .     A
C1323  C1325   1.394   .     A
C1324  N224    1.338   .     A
C1325  C1326   1.411   .     A
C1325  H439    1.084   .     S
C1326  C1327   1.435   .     A
C1326  C1329   1.405   .     A
C1327  C1328   1.411   .     A
C1327  C1332   1.405   .     A
C1328  H440    1.084   .     S
C1329  C1330   1.396   .     A
C1329  H441    1.083   .     S
C1330  C1331   1.374   .     A
C1330  O217    1.381   .     S
C1331  C1332   1.396   .     A
C1331  O218    1.381   .     S
C1332  H442    1.083   .     S
C1333  C1334   1.397   .     A
C1333  H443    1.084   .     S
C1334  C1335   1.412   .     A
C1334  O219    1.395   .     S
C1335  C1336   1.397   .     A
C1335  O220    1.396   .     S
C1336  H444    1.084   .     S
C1337  C1338   1.397   .     A
C1337  H445    1.084   .     S
C1338  C1339   1.412   .     A
C1338  O221    1.396   .     S
C1339  C1340   1.397   .     A
C1339  O222    1.395   .     S
C1340  H446    1.084   .     S
C1341  C1342   1.396   .     A
C1341  H447    1.083   .     S
C1342  C1343   1.374   .     A
C1342  O223    1.381   .     S
C1343  C1344   1.396   .     A
C1343  O224    1.381   .     S
C1344  H448    1.083   .     S
O217   Cu28    1.812   .     S
O218   Cu28    1.812   .     S
O219   Zn47    1.800   .     S
O220   Zn47    1.801   .     S
O221   Zn20    1.801   .     S
O222   Zn20    1.800   .     S
O223   Cu25    1.812   .     S
O224   Cu25    1.812   .     S
C1345  C1346   1.411   .     A
C1345  C1350   1.394   .     A
C1345  H449    1.084   .     S
C1346  C1347   1.432   .     A
C1346  C1381   1.403   .     A
C1347  C1348   1.412   .     A
C1347  C1384   1.403   .     A
C1348  C1349   1.394   .     A
C1348  H450    1.084   .     S
C1349  C1350   1.358   .     A
C1349  C1352   1.377   .     A
C1350  C1351   1.377   .     A
C1351  N225    1.359   .     A
C1351  N232    1.338   .     A
N225   C1352   1.359   .     A
N225   Ni29    1.895   .     S
C1352  N226    1.338   .     A
N226   C1353   1.338   .     A
C1353  N227    1.359   .     A
C1353  C1356   1.377   .     A
N227   C1354   1.359   .     A
N227   Ni29    1.895   .     S
C1354  C1355   1.377   .     A
C1354  N229    1.338   .     A
C1355  C1356   1.358   .     A
C1355  C1364   1.394   .     A
C1356  C1361   1.394   .     A
N228   C1357   1.359   .     A
N228   C1360   1.359   .     A
N228   Ni29    1.895   .     S
C1357  N229    1.338   .     A
C1357  C1358   1.377   .     A
C1358  C1359   1.359   .     A
C1358  C1368   1.394   .     A
C1359  C1360   1.377   .     A
C1359  C1365   1.394   .     A
C1360  N231    1.338   .     A
C1361  C1362   1.412   .     A
C1361  H451    1.084   .     S
C1362  C1363   1.432   .     A
C1362  C1385   1.403   .     A
C1363  C1364   1.411   .     A
C1363  C1388   1.403   .     A
C1364  H452    1.084   .     S
C1365  C1366   1.411   .     A
C1365  H453    1.084   .     S
C1366  C1367   1.435   .     A
C1366  C1389   1.405   .     A
C1367  C1368   1.411   .     A
C1367  C1392   1.405   .     A
C1368  H454    1.084   .     S
N230   C1369   1.359   .     A
N230   C1372   1.359   .     A
N230   Ni29    1.895   .     S
C1369  N231    1.338   .     A
C1369  C1370   1.377   .     A
C1370  C1371   1.359   .     A
C1370  C1376   1.394   .     A
C1371  C1372   1.377   .     A
C1371  C1373   1.394   .     A
C1372  N232    1.338   .     A
C1373  C1374   1.411   .     A
C1373  H455    1.084   .     S
C1374  C1375   1.435   .     A
C1374  C1377   1.405   .     A
C1375  C1376   1.411   .     A
C1375  C1380   1.405   .     A
C1376  H456    1.084   .     S
C1377  C1378   1.396   .     A
C1377  H457    1.083   .     S
C1378  C1379   1.374   .     A
C1378  O225    1.381   .     S
C1379  C1380   1.396   .     A
C1379  O226    1.381   .     S
C1380  H458    1.083   .     S
C1381  C1382   1.397   .     A
C1381  H459    1.084   .     S
C1382  C1383   1.412   .     A
C1382  O227    1.395   .     S
C1383  C1384   1.397   .     A
C1383  O228    1.396   .     S
C1384  H460    1.084   .     S
C1385  C1386   1.397   .     A
C1385  H461    1.084   .     S
C1386  C1387   1.412   .     A
C1386  O229    1.396   .     S
C1387  C1388   1.397   .     A
C1387  O230    1.395   .     S
C1388  H462    1.084   .     S
C1389  C1390   1.396   .     A
C1389  H463    1.083   .     S
C1390  C1391   1.374   .     A
C1390  O231    1.381   .     S
C1391  C1392   1.396   .     A
C1391  O232    1.381   .     S
C1392  H464    1.083   .     S
O225   Cu32    1.812   .     S
O226   Cu32    1.812   .     S
O227   Zn24    1.800   .     S
O228   Zn24    1.801   .     S
O229   Zn42    1.801   .     S
O230   Zn42    1.800   .     S
O231   Cu29    1.812   .     S
O232   Cu29    1.812   .     S
C1393  C1394   1.411   .     A
C1393  C1398   1.394   .     A
C1393  H465    1.084   .     S
C1394  C1395   1.435   .     A
C1394  C1429   1.405   .     A
C1395  C1396   1.411   .     A
C1395  C1432   1.405   .     A
C1396  C1397   1.394   .     A
C1396  H466    1.084   .     S
C1397  C1398   1.359   .     A
C1397  C1400   1.377   .     A
C1398  C1399   1.377   .     A
C1399  N233    1.359   .     A
C1399  N240    1.338   .     A
N233   C1400   1.359   .     A
N233   Ni30    1.895   .     S
C1400  N234    1.338   .     A
N234   C1401   1.338   .     A
C1401  N235    1.359   .     A
C1401  C1404   1.377   .     A
N235   C1402   1.359   .     A
N235   Ni30    1.895   .     S
C1402  C1403   1.377   .     A
C1402  N237    1.338   .     A
C1403  C1404   1.358   .     A
C1403  C1412   1.394   .     A
C1404  C1409   1.394   .     A
N236   C1405   1.359   .     A
N236   C1408   1.359   .     A
N236   Ni30    1.895   .     S
C1405  N237    1.338   .     A
C1405  C1406   1.377   .     A
C1406  C1407   1.358   .     A
C1406  C1416   1.394   .     A
C1407  C1408   1.377   .     A
C1407  C1413   1.394   .     A
C1408  N239    1.338   .     A
C1409  C1410   1.411   .     A
C1409  H467    1.084   .     S
C1410  C1411   1.432   .     A
C1410  C1433   1.403   .     A
C1411  C1412   1.412   .     A
C1411  C1436   1.403   .     A
C1412  H468    1.084   .     S
C1413  C1414   1.411   .     A
C1413  H469    1.084   .     S
C1414  C1415   1.432   .     A
C1414  C1437   1.403   .     A
C1415  C1416   1.412   .     A
C1415  C1440   1.403   .     A
C1416  H470    1.084   .     S
N238   C1417   1.359   .     A
N238   C1420   1.359   .     A
N238   Ni30    1.895   .     S
C1417  N239    1.338   .     A
C1417  C1418   1.377   .     A
C1418  C1419   1.359   .     A
C1418  C1424   1.394   .     A
C1419  C1420   1.377   .     A
C1419  C1421   1.394   .     A
C1420  N240    1.338   .     A
C1421  C1422   1.411   .     A
C1421  H471    1.084   .     S
C1422  C1423   1.435   .     A
C1422  C1425   1.405   .     A
C1423  C1424   1.411   .     A
C1423  C1428   1.405   .     A
C1424  H472    1.084   .     S
C1425  C1426   1.396   .     A
C1425  H473    1.083   .     S
C1426  C1427   1.374   .     A
C1426  O233    1.381   .     S
C1427  C1428   1.396   .     A
C1427  O234    1.381   .     S
C1428  H474    1.083   .     S
C1429  C1430   1.396   .     A
C1429  H475    1.083   .     S
C1430  C1431   1.374   .     A
C1430  O235    1.381   .     S
C1431  C1432   1.396   .     A
C1431  O236    1.381   .     S
C1432  H476    1.083   .     S
C1433  C1434   1.397   .     A
C1433  H477    1.084   .     S
C1434  C1435   1.412   .     A
C1434  O237    1.395   .     S
C1435  C1436   1.397   .     A
C1435  O238    1.396   .     S
C1436  H478    1.084   .     S
C1437  C1438   1.397   .     A
C1437  H479    1.084   .     S
C1438  C1439   1.412   .     A
C1438  O239    1.395   .     S
C1439  C1440   1.397   .     A
C1439  O240    1.396   .     S
C1440  H480    1.084   .     S
O233   Cu30    1.812   .     S
O234   Cu30    1.812   .     S
O235   Cu29    1.812   .     S
O236   Cu29    1.812   .     S
O237   Zn22    1.800   .     S
O238   Zn22    1.801   .     S
O239   Zn43    1.800   .     S
O240   Zn43    1.801   .     S
C1441  C1442   1.411   .     A
C1441  C1446   1.394   .     A
C1441  H481    1.084   .     S
C1442  C1443   1.435   .     A
C1442  C1477   1.405   .     A
C1443  C1444   1.411   .     A
C1443  C1480   1.405   .     A
C1444  C1445   1.394   .     A
C1444  H482    1.084   .     S
C1445  C1446   1.359   .     A
C1445  C1448   1.377   .     A
C1446  C1447   1.377   .     A
C1447  N241    1.359   .     A
C1447  N248    1.338   .     A
N241   C1448   1.359   .     A
N241   Ni31    1.895   .     S
C1448  N242    1.338   .     A
N242   C1449   1.338   .     A
C1449  N243    1.359   .     A
C1449  C1452   1.377   .     A
N243   C1450   1.359   .     A
N243   Ni31    1.895   .     S
C1450  C1451   1.377   .     A
C1450  N245    1.338   .     A
C1451  C1452   1.359   .     A
C1451  C1460   1.394   .     A
C1452  C1457   1.394   .     A
N244   C1453   1.359   .     A
N244   C1456   1.359   .     A
N244   Ni31    1.895   .     S
C1453  N245    1.338   .     A
C1453  C1454   1.377   .     A
C1454  C1455   1.358   .     A
C1454  C1464   1.394   .     A
C1455  C1456   1.377   .     A
C1455  C1461   1.394   .     A
C1456  N247    1.338   .     A
C1457  C1458   1.411   .     A
C1457  H483    1.084   .     S
C1458  C1459   1.435   .     A
C1458  C1481   1.405   .     A
C1459  C1460   1.411   .     A
C1459  C1484   1.405   .     A
C1460  H484    1.084   .     S
C1461  C1462   1.412   .     A
C1461  H485    1.084   .     S
C1462  C1463   1.432   .     A
C1462  C1485   1.403   .     A
C1463  C1464   1.411   .     A
C1463  C1488   1.403   .     A
C1464  H486    1.084   .     S
N246   C1465   1.359   .     A
N246   C1468   1.359   .     A
N246   Ni31    1.895   .     S
C1465  N247    1.338   .     A
C1465  C1466   1.377   .     A
C1466  C1467   1.358   .     A
C1466  C1472   1.394   .     A
C1467  C1468   1.377   .     A
C1467  C1469   1.394   .     A
C1468  N248    1.338   .     A
C1469  C1470   1.411   .     A
C1469  H487    1.084   .     S
C1470  C1471   1.432   .     A
C1470  C1473   1.403   .     A
C1471  C1472   1.412   .     A
C1471  C1476   1.403   .     A
C1472  H488    1.084   .     S
C1473  C1474   1.397   .     A
C1473  H489    1.084   .     S
C1474  C1475   1.412   .     A
C1474  O241    1.395   .     S
C1475  C1476   1.397   .     A
C1475  O242    1.396   .     S
C1476  H490    1.084   .     S
C1477  C1478   1.396   .     A
C1477  H491    1.083   .     S
C1478  C1479   1.374   .     A
C1478  O243    1.381   .     S
C1479  C1480   1.396   .     A
C1479  O244    1.381   .     S
C1480  H492    1.083   .     S
C1481  C1482   1.396   .     A
C1481  H493    1.083   .     S
C1482  C1483   1.374   .     A
C1482  O245    1.381   .     S
C1483  C1484   1.396   .     A
C1483  O246    1.381   .     S
C1484  H494    1.083   .     S
C1485  C1486   1.397   .     A
C1485  H495    1.084   .     S
C1486  C1487   1.412   .     A
C1486  O247    1.396   .     S
C1487  C1488   1.397   .     A
C1487  O248    1.395   .     S
C1488  H496    1.084   .     S
O241   Zn44    1.800   .     S
O242   Zn44    1.801   .     S
O243   Cu31    1.812   .     S
O244   Cu31    1.812   .     S
O245   Cu30    1.812   .     S
O246   Cu30    1.812   .     S
O247   Zn23    1.801   .     S
O248   Zn23    1.800   .     S
C1489  C1490   1.412   .     A
C1489  C1494   1.394   .     A
C1489  H497    1.084   .     S
C1490  C1491   1.432   .     A
C1490  C1525   1.403   .     A
C1491  C1492   1.411   .     A
C1491  C1528   1.403   .     A
C1492  C1493   1.394   .     A
C1492  H498    1.084   .     S
C1493  C1494   1.358   .     A
C1493  C1496   1.377   .     A
C1494  C1495   1.377   .     A
C1495  N249    1.359   .     A
C1495  N256    1.338   .     A
N249   C1496   1.359   .     A
N249   Ni32    1.895   .     S
C1496  N250    1.338   .     A
N250   C1497   1.338   .     A
C1497  N251    1.359   .     A
C1497  C1500   1.377   .     A
N251   C1498   1.359   .     A
N251   Ni32    1.895   .     S
C1498  C1499   1.377   .     A
C1498  N253    1.338   .     A
C1499  C1500   1.359   .     A
C1499  C1508   1.394   .     A
C1500  C1505   1.394   .     A
N252   C1501   1.359   .     A
N252   C1504   1.359   .     A
N252   Ni32    1.895   .     S
C1501  N253    1.338   .     A
C1501  C1502   1.377   .     A
C1502  C1503   1.359   .     A
C1502  C1512   1.394   .     A
C1503  C1504   1.377   .     A
C1503  C1509   1.394   .     A
C1504  N255    1.338   .     A
C1505  C1506   1.411   .     A
C1505  H499    1.084   .     S
C1506  C1507   1.435   .     A
C1506  C1529   1.405   .     A
C1507  C1508   1.411   .     A
C1507  C1532   1.405   .     A
C1508  H500    1.084   .     S
C1509  C1510   1.411   .     A
C1509  H501    1.084   .     S
C1510  C1511   1.435   .     A
C1510  C1533   1.405   .     A
C1511  C1512   1.411   .     A
C1511  C1536   1.405   .     A
C1512  H502    1.084   .     S
N254   C1513   1.359   .     A
N254   C1516   1.359   .     A
N254   Ni32    1.895   .     S
C1513  N255    1.338   .     A
C1513  C1514   1.377   .     A
C1514  C1515   1.358   .     A
C1514  C1520   1.394   .     A
C1515  C1516   1.377   .     A
C1515  C1517   1.394   .     A
C1516  N256    1.338   .     A
C1517  C1518   1.412   .     A
C1517  H503    1.084   .     S
C1518  C1519   1.432   .     A
C1518  C1521   1.403   .     A
C1519  C1520   1.411   .     A
C1519  C1524   1.403   .     A
C1520  H504    1.084   .     S
C1521  C1522   1.397   .     A
C1521  H505    1.084   .     S
C1522  C1523   1.412   .     A
C1522  O249    1.396   .     S
C1523  C1524   1.397   .     A
C1523  O250    1.395   .     S
C1524  H506    1.084   .     S
C1525  C1526   1.397   .     A
C1525  H507    1.084   .     S
C1526  C1527   1.412   .     A
C1526  O251    1.396   .     S
C1527  C1528   1.397   .     A
C1527  O252    1.395   .     S
C1528  H508    1.084   .     S
C1529  C1530   1.396   .     A
C1529  H509    1.083   .     S
C1530  C1531   1.374   .     A
C1530  O253    1.381   .     S
C1531  C1532   1.396   .     A
C1531  O254    1.381   .     S
C1532  H510    1.083   .     S
C1533  C1534   1.396   .     A
C1533  H511    1.083   .     S
C1534  C1535   1.374   .     A
C1534  O255    1.381   .     S
C1535  C1536   1.396   .     A
C1535  O256    1.381   .     S
C1536  H512    1.083   .     S
O249   Zn17    1.801   .     S
O250   Zn17    1.800   .     S
O251   Zn45    1.801   .     S
O252   Zn45    1.800   .     S
O253   Cu32    1.812   .     S
O254   Cu32    1.812   .     S
O255   Cu31    1.812   .     S
O256   Cu31    1.812   .     S
C1537  C1538   1.412   .     A
C1537  C1542   1.394   .     A
C1537  H513    1.084   .     S
C1538  C1539   1.432   .     A
C1538  C1573   1.403   .     A
C1539  C1540   1.411   .     A
C1539  C1576   1.403   .     A
C1540  C1541   1.394   .     A
C1540  H514    1.084   .     S
C1541  C1542   1.358   .     A
C1541  C1544   1.377   .     A
C1542  C1543   1.377   .     A
C1543  N257    1.359   .     A
C1543  N264    1.338   .     A
N257   C1544   1.359   .     A
N257   Ni33    1.895   .     S
C1544  N258    1.338   .     A
N258   C1545   1.338   .     A
C1545  N259    1.359   .     A
C1545  C1548   1.377   .     A
N259   C1546   1.359   .     A
N259   Ni33    1.895   .     S
C1546  C1547   1.377   .     A
C1546  N261    1.338   .     A
C1547  C1548   1.359   .     A
C1547  C1556   1.394   .     A
C1548  C1553   1.394   .     A
N260   C1549   1.359   .     A
N260   C1552   1.359   .     A
N260   Ni33    1.895   .     S
C1549  N261    1.338   .     A
C1549  C1550   1.377   .     A
C1550  C1551   1.359   .     A
C1550  C1560   1.394   .     A
C1551  C1552   1.377   .     A
C1551  C1557   1.394   .     A
C1552  N263    1.338   .     A
C1553  C1554   1.411   .     A
C1553  H515    1.084   .     S
C1554  C1555   1.435   .     A
C1554  C1577   1.405   .     A
C1555  C1556   1.411   .     A
C1555  C1580   1.405   .     A
C1556  H516    1.084   .     S
C1557  C1558   1.411   .     A
C1557  H517    1.084   .     S
C1558  C1559   1.435   .     A
C1558  C1581   1.405   .     A
C1559  C1560   1.411   .     A
C1559  C1584   1.405   .     A
C1560  H518    1.084   .     S
N262   C1561   1.359   .     A
N262   C1564   1.359   .     A
N262   Ni33    1.895   .     S
C1561  N263    1.338   .     A
C1561  C1562   1.377   .     A
C1562  C1563   1.358   .     A
C1562  C1568   1.394   .     A
C1563  C1564   1.377   .     A
C1563  C1565   1.394   .     A
C1564  N264    1.338   .     A
C1565  C1566   1.412   .     A
C1565  H519    1.084   .     S
C1566  C1567   1.432   .     A
C1566  C1569   1.403   .     A
C1567  C1568   1.411   .     A
C1567  C1572   1.403   .     A
C1568  H520    1.084   .     S
C1569  C1570   1.397   .     A
C1569  H521    1.084   .     S
C1570  C1571   1.412   .     A
C1570  O257    1.396   .     S
C1571  C1572   1.397   .     A
C1571  O258    1.395   .     S
C1572  H522    1.084   .     S
C1573  C1574   1.397   .     A
C1573  H523    1.084   .     S
C1574  C1575   1.412   .     A
C1574  O259    1.396   .     S
C1575  C1576   1.397   .     A
C1575  O260    1.395   .     S
C1576  H524    1.084   .     S
C1577  C1578   1.396   .     A
C1577  H525    1.083   .     S
C1578  C1579   1.374   .     A
C1578  O261    1.381   .     S
C1579  C1580   1.396   .     A
C1579  O262    1.381   .     S
C1580  H526    1.083   .     S
C1581  C1582   1.396   .     A
C1581  H527    1.083   .     S
C1582  C1583   1.374   .     A
C1582  O263    1.381   .     S
C1583  C1584   1.396   .     A
C1583  O264    1.381   .     S
C1584  H528    1.083   .     S
O257   Zn16    1.801   .     S
O258   Zn16    1.800   .     S
O259   Zn25    1.801   .     S
O260   Zn25    1.800   .     S
O261   Cu33    1.812   .     S
O262   Cu33    1.812   .     S
O263   Cu47    1.812   .     S
O264   Cu47    1.812   .     S
C1585  C1586   1.411   .     A
C1585  C1590   1.394   .     A
C1585  H529    1.084   .     S
C1586  C1587   1.435   .     A
C1586  C1621   1.405   .     A
C1587  C1588   1.411   .     A
C1587  C1624   1.405   .     A
C1588  C1589   1.394   .     A
C1588  H530    1.084   .     S
C1589  C1590   1.359   .     A
C1589  C1592   1.377   .     A
C1590  C1591   1.377   .     A
C1591  N265    1.359   .     A
C1591  N272    1.338   .     A
N265   C1592   1.359   .     A
N265   Ni34    1.895   .     S
C1592  N266    1.338   .     A
N266   C1593   1.338   .     A
C1593  N267    1.359   .     A
C1593  C1596   1.377   .     A
N267   C1594   1.359   .     A
N267   Ni34    1.895   .     S
C1594  C1595   1.377   .     A
C1594  N269    1.338   .     A
C1595  C1596   1.359   .     A
C1595  C1604   1.394   .     A
C1596  C1601   1.394   .     A
N268   C1597   1.359   .     A
N268   C1600   1.359   .     A
N268   Ni34    1.895   .     S
C1597  N269    1.338   .     A
C1597  C1598   1.377   .     A
C1598  C1599   1.358   .     A
C1598  C1608   1.394   .     A
C1599  C1600   1.377   .     A
C1599  C1605   1.394   .     A
C1600  N271    1.338   .     A
C1601  C1602   1.411   .     A
C1601  H531    1.084   .     S
C1602  C1603   1.435   .     A
C1602  C1625   1.405   .     A
C1603  C1604   1.411   .     A
C1603  C1628   1.405   .     A
C1604  H532    1.084   .     S
C1605  C1606   1.412   .     A
C1605  H533    1.084   .     S
C1606  C1607   1.432   .     A
C1606  C1629   1.403   .     A
C1607  C1608   1.411   .     A
C1607  C1632   1.403   .     A
C1608  H534    1.084   .     S
N270   C1609   1.359   .     A
N270   C1612   1.359   .     A
N270   Ni34    1.895   .     S
C1609  N271    1.338   .     A
C1609  C1610   1.377   .     A
C1610  C1611   1.358   .     A
C1610  C1616   1.394   .     A
C1611  C1612   1.377   .     A
C1611  C1613   1.394   .     A
C1612  N272    1.338   .     A
C1613  C1614   1.411   .     A
C1613  H535    1.084   .     S
C1614  C1615   1.432   .     A
C1614  C1617   1.403   .     A
C1615  C1616   1.412   .     A
C1615  C1620   1.403   .     A
C1616  H536    1.084   .     S
C1617  C1618   1.397   .     A
C1617  H537    1.084   .     S
C1618  C1619   1.412   .     A
C1618  O265    1.395   .     S
C1619  C1620   1.397   .     A
C1619  O266    1.396   .     S
C1620  H538    1.084   .     S
C1621  C1622   1.396   .     A
C1621  H539    1.083   .     S
C1622  C1623   1.374   .     A
C1622  O267    1.381   .     S
C1623  C1624   1.396   .     A
C1623  O268    1.381   .     S
C1624  H540    1.083   .     S
C1625  C1626   1.396   .     A
C1625  H541    1.083   .     S
C1626  C1627   1.374   .     A
C1626  O269    1.381   .     S
C1627  C1628   1.396   .     A
C1627  O270    1.381   .     S
C1628  H542    1.083   .     S
C1629  C1630   1.397   .     A
C1629  H543    1.084   .     S
C1630  C1631   1.412   .     A
C1630  O271    1.396   .     S
C1631  C1632   1.397   .     A
C1631  O272    1.395   .     S
C1632  H544    1.084   .     S
O265   Zn26    1.800   .     S
O266   Zn26    1.801   .     S
O267   Cu34    1.812   .     S
O268   Cu34    1.812   .     S
O269   Cu41    1.812   .     S
O270   Cu41    1.812   .     S
O271   Zn13    1.801   .     S
O272   Zn13    1.800   .     S
C1633  C1634   1.411   .     A
C1633  C1638   1.394   .     A
C1633  H545    1.084   .     S
C1634  C1635   1.432   .     A
C1634  C1669   1.403   .     A
C1635  C1636   1.412   .     A
C1635  C1672   1.403   .     A
C1636  C1637   1.394   .     A
C1636  H546    1.084   .     S
C1637  C1638   1.358   .     A
C1637  C1640   1.377   .     A
C1638  C1639   1.377   .     A
C1639  N273    1.359   .     A
C1639  N280    1.338   .     A
N273   C1640   1.359   .     A
N273   Ni35    1.895   .     S
C1640  N274    1.338   .     A
N274   C1641   1.338   .     A
C1641  N275    1.359   .     A
C1641  C1644   1.377   .     A
N275   C1642   1.359   .     A
N275   Ni35    1.895   .     S
C1642  C1643   1.377   .     A
C1642  N277    1.338   .     A
C1643  C1644   1.358   .     A
C1643  C1652   1.394   .     A
C1644  C1649   1.394   .     A
N276   C1645   1.359   .     A
N276   C1648   1.359   .     A
N276   Ni35    1.895   .     S
C1645  N277    1.338   .     A
C1645  C1646   1.377   .     A
C1646  C1647   1.359   .     A
C1646  C1656   1.394   .     A
C1647  C1648   1.377   .     A
C1647  C1653   1.394   .     A
C1648  N279    1.338   .     A
C1649  C1650   1.412   .     A
C1649  H547    1.084   .     S
C1650  C1651   1.432   .     A
C1650  C1673   1.403   .     A
C1651  C1652   1.411   .     A
C1651  C1676   1.403   .     A
C1652  H548    1.084   .     S
C1653  C1654   1.411   .     A
C1653  H549    1.084   .     S
C1654  C1655   1.435   .     A
C1654  C1677   1.405   .     A
C1655  C1656   1.411   .     A
C1655  C1680   1.405   .     A
C1656  H550    1.084   .     S
N278   C1657   1.359   .     A
N278   C1660   1.359   .     A
N278   Ni35    1.895   .     S
C1657  N279    1.338   .     A
C1657  C1658   1.377   .     A
C1658  C1659   1.359   .     A
C1658  C1664   1.394   .     A
C1659  C1660   1.377   .     A
C1659  C1661   1.394   .     A
C1660  N280    1.338   .     A
C1661  C1662   1.411   .     A
C1661  H551    1.084   .     S
C1662  C1663   1.435   .     A
C1662  C1665   1.405   .     A
C1663  C1664   1.411   .     A
C1663  C1668   1.405   .     A
C1664  H552    1.084   .     S
C1665  C1666   1.396   .     A
C1665  H553    1.083   .     S
C1666  C1667   1.374   .     A
C1666  O273    1.381   .     S
C1667  C1668   1.396   .     A
C1667  O274    1.381   .     S
C1668  H554    1.083   .     S
C1669  C1670   1.397   .     A
C1669  H555    1.084   .     S
C1670  C1671   1.412   .     A
C1670  O275    1.395   .     S
C1671  C1672   1.397   .     A
C1671  O276    1.396   .     S
C1672  H556    1.084   .     S
C1673  C1674   1.397   .     A
C1673  H557    1.084   .     S
C1674  C1675   1.412   .     A
C1674  O277    1.396   .     S
C1675  C1676   1.397   .     A
C1675  O278    1.395   .     S
C1676  H558    1.084   .     S
C1677  C1678   1.396   .     A
C1677  H559    1.083   .     S
C1678  C1679   1.374   .     A
C1678  O279    1.381   .     S
C1679  C1680   1.396   .     A
C1679  O280    1.381   .     S
C1680  H560    1.083   .     S
O273   Cu35    1.812   .     S
O274   Cu35    1.812   .     S
O275   Zn27    1.800   .     S
O276   Zn27    1.801   .     S
O277   Zn14    1.801   .     S
O278   Zn14    1.800   .     S
O279   Cu48    1.812   .     S
O280   Cu48    1.812   .     S
C1681  C1682   1.412   .     A
C1681  C1686   1.394   .     A
C1681  H561    1.084   .     S
C1682  C1683   1.432   .     A
C1682  C1717   1.403   .     A
C1683  C1684   1.411   .     A
C1683  C1720   1.403   .     A
C1684  C1685   1.394   .     A
C1684  H562    1.084   .     S
C1685  C1686   1.358   .     A
C1685  C1688   1.377   .     A
C1686  C1687   1.377   .     A
C1687  N281    1.359   .     A
C1687  N288    1.338   .     A
N281   C1688   1.359   .     A
N281   Ni36    1.895   .     S
C1688  N282    1.338   .     A
N282   C1689   1.338   .     A
C1689  N283    1.359   .     A
C1689  C1692   1.377   .     A
N283   C1690   1.359   .     A
N283   Ni36    1.895   .     S
C1690  C1691   1.377   .     A
C1690  N285    1.338   .     A
C1691  C1692   1.359   .     A
C1691  C1700   1.394   .     A
C1692  C1697   1.394   .     A
N284   C1693   1.359   .     A
N284   C1696   1.359   .     A
N284   Ni36    1.895   .     S
C1693  N285    1.338   .     A
C1693  C1694   1.377   .     A
C1694  C1695   1.359   .     A
C1694  C1704   1.394   .     A
C1695  C1696   1.377   .     A
C1695  C1701   1.394   .     A
C1696  N287    1.338   .     A
C1697  C1698   1.411   .     A
C1697  H563    1.084   .     S
C1698  C1699   1.435   .     A
C1698  C1721   1.405   .     A
C1699  C1700   1.411   .     A
C1699  C1724   1.405   .     A
C1700  H564    1.084   .     S
C1701  C1702   1.411   .     A
C1701  H565    1.084   .     S
C1702  C1703   1.435   .     A
C1702  C1725   1.405   .     A
C1703  C1704   1.411   .     A
C1703  C1728   1.405   .     A
C1704  H566    1.084   .     S
N286   C1705   1.359   .     A
N286   C1708   1.359   .     A
N286   Ni36    1.895   .     S
C1705  N287    1.338   .     A
C1705  C1706   1.377   .     A
C1706  C1707   1.358   .     A
C1706  C1712   1.394   .     A
C1707  C1708   1.377   .     A
C1707  C1709   1.394   .     A
C1708  N288    1.338   .     A
C1709  C1710   1.412   .     A
C1709  H567    1.084   .     S
C1710  C1711   1.432   .     A
C1710  C1713   1.403   .     A
C1711  C1712   1.411   .     A
C1711  C1716   1.403   .     A
C1712  H568    1.084   .     S
C1713  C1714   1.397   .     A
C1713  H569    1.084   .     S
C1714  C1715   1.412   .     A
C1714  O281    1.396   .     S
C1715  C1716   1.397   .     A
C1715  O282    1.395   .     S
C1716  H570    1.084   .     S
C1717  C1718   1.397   .     A
C1717  H571    1.084   .     S
C1718  C1719   1.412   .     A
C1718  O283    1.396   .     S
C1719  C1720   1.397   .     A
C1719  O284    1.395   .     S
C1720  H572    1.084   .     S
C1721  C1722   1.396   .     A
C1721  H573    1.083   .     S
C1722  C1723   1.374   .     A
C1722  O285    1.381   .     S
C1723  C1724   1.396   .     A
C1723  O286    1.381   .     S
C1724  H574    1.083   .     S
C1725  C1726   1.396   .     A
C1725  H575    1.083   .     S
C1726  C1727   1.374   .     A
C1726  O287    1.381   .     S
C1727  C1728   1.396   .     A
C1727  O288    1.381   .     S
C1728  H576    1.083   .     S
O281   Zn28    1.801   .     S
O282   Zn28    1.800   .     S
O283   Zn15    1.801   .     S
O284   Zn15    1.800   .     S
O285   Cu46    1.812   .     S
O286   Cu46    1.812   .     S
O287   Cu36    1.812   .     S
O288   Cu36    1.812   .     S
C1729  C1730   1.412   .     A
C1729  C1734   1.394   .     A
C1729  H577    1.084   .     S
C1730  C1731   1.432   .     A
C1730  C1765   1.403   .     A
C1731  C1732   1.411   .     A
C1731  C1768   1.403   .     A
C1732  C1733   1.394   .     A
C1732  H578    1.084   .     S
C1733  C1734   1.358   .     A
C1733  C1736   1.377   .     A
C1734  C1735   1.377   .     A
C1735  N289    1.359   .     A
C1735  N296    1.338   .     A
N289   C1736   1.359   .     A
N289   Ni37    1.895   .     S
C1736  N290    1.338   .     A
N290   C1737   1.338   .     A
C1737  N291    1.359   .     A
C1737  C1740   1.377   .     A
N291   C1738   1.359   .     A
N291   Ni37    1.895   .     S
C1738  C1739   1.377   .     A
C1738  N293    1.338   .     A
C1739  C1740   1.359   .     A
C1739  C1748   1.394   .     A
C1740  C1745   1.394   .     A
N292   C1741   1.359   .     A
N292   C1744   1.359   .     A
N292   Ni37    1.895   .     S
C1741  N293    1.338   .     A
C1741  C1742   1.377   .     A
C1742  C1743   1.359   .     A
C1742  C1752   1.394   .     A
C1743  C1744   1.377   .     A
C1743  C1749   1.394   .     A
C1744  N295    1.338   .     A
C1745  C1746   1.411   .     A
C1745  H579    1.084   .     S
C1746  C1747   1.435   .     A
C1746  C1769   1.405   .     A
C1747  C1748   1.411   .     A
C1747  C1772   1.405   .     A
C1748  H580    1.084   .     S
C1749  C1750   1.411   .     A
C1749  H581    1.084   .     S
C1750  C1751   1.435   .     A
C1750  C1773   1.405   .     A
C1751  C1752   1.411   .     A
C1751  C1776   1.405   .     A
C1752  H582    1.084   .     S
N294   C1753   1.359   .     A
N294   C1756   1.359   .     A
N294   Ni37    1.895   .     S
C1753  N295    1.338   .     A
C1753  C1754   1.377   .     A
C1754  C1755   1.358   .     A
C1754  C1760   1.394   .     A
C1755  C1756   1.377   .     A
C1755  C1757   1.394   .     A
C1756  N296    1.338   .     A
C1757  C1758   1.412   .     A
C1757  H583    1.084   .     S
C1758  C1759   1.432   .     A
C1758  C1761   1.403   .     A
C1759  C1760   1.411   .     A
C1759  C1764   1.403   .     A
C1760  H584    1.084   .     S
C1761  C1762   1.397   .     A
C1761  H585    1.084   .     S
C1762  C1763   1.412   .     A
C1762  O289    1.396   .     S
C1763  C1764   1.397   .     A
C1763  O290    1.395   .     S
C1764  H586    1.084   .     S
C1765  C1766   1.397   .     A
C1765  H587    1.084   .     S
C1766  C1767   1.412   .     A
C1766  O291    1.396   .     S
C1767  C1768   1.397   .     A
C1767  O292    1.395   .     S
C1768  H588    1.084   .     S
C1769  C1770   1.396   .     A
C1769  H589    1.083   .     S
C1770  C1771   1.374   .     A
C1770  O293    1.381   .     S
C1771  C1772   1.396   .     A
C1771  O294    1.381   .     S
C1772  H590    1.083   .     S
C1773  C1774   1.396   .     A
C1773  H591    1.083   .     S
C1774  C1775   1.374   .     A
C1774  O295    1.381   .     S
C1775  C1776   1.396   .     A
C1775  O296    1.381   .     S
C1776  H592    1.083   .     S
O289   Zn10    1.801   .     S
O290   Zn10    1.800   .     S
O291   Zn29    1.801   .     S
O292   Zn29    1.800   .     S
O293   Cu37    1.812   .     S
O294   Cu37    1.812   .     S
O295   Cu43    1.812   .     S
O296   Cu43    1.812   .     S
C1777  C1778   1.411   .     A
C1777  C1782   1.394   .     A
C1777  H593    1.084   .     S
C1778  C1779   1.432   .     A
C1778  C1813   1.403   .     A
C1779  C1780   1.412   .     A
C1779  C1816   1.403   .     A
C1780  C1781   1.394   .     A
C1780  H594    1.084   .     S
C1781  C1782   1.358   .     A
C1781  C1784   1.377   .     A
C1782  C1783   1.377   .     A
C1783  N297    1.359   .     A
C1783  N304    1.338   .     A
N297   C1784   1.359   .     A
N297   Ni38    1.895   .     S
C1784  N298    1.338   .     A
N298   C1785   1.338   .     A
C1785  N299    1.359   .     A
C1785  C1788   1.377   .     A
N299   C1786   1.359   .     A
N299   Ni38    1.895   .     S
C1786  C1787   1.377   .     A
C1786  N301    1.338   .     A
C1787  C1788   1.358   .     A
C1787  C1796   1.394   .     A
C1788  C1793   1.394   .     A
N300   C1789   1.359   .     A
N300   C1792   1.359   .     A
N300   Ni38    1.895   .     S
C1789  N301    1.338   .     A
C1789  C1790   1.377   .     A
C1790  C1791   1.359   .     A
C1790  C1800   1.394   .     A
C1791  C1792   1.377   .     A
C1791  C1797   1.394   .     A
C1792  N303    1.338   .     A
C1793  C1794   1.412   .     A
C1793  H595    1.084   .     S
C1794  C1795   1.432   .     A
C1794  C1817   1.403   .     A
C1795  C1796   1.411   .     A
C1795  C1820   1.403   .     A
C1796  H596    1.084   .     S
C1797  C1798   1.411   .     A
C1797  H597    1.084   .     S
C1798  C1799   1.435   .     A
C1798  C1821   1.405   .     A
C1799  C1800   1.411   .     A
C1799  C1824   1.405   .     A
C1800  H598    1.084   .     S
N302   C1801   1.359   .     A
N302   C1804   1.359   .     A
N302   Ni38    1.895   .     S
C1801  N303    1.338   .     A
C1801  C1802   1.377   .     A
C1802  C1803   1.359   .     A
C1802  C1808   1.394   .     A
C1803  C1804   1.377   .     A
C1803  C1805   1.394   .     A
C1804  N304    1.338   .     A
C1805  C1806   1.411   .     A
C1805  H599    1.084   .     S
C1806  C1807   1.435   .     A
C1806  C1809   1.405   .     A
C1807  C1808   1.411   .     A
C1807  C1812   1.405   .     A
C1808  H600    1.084   .     S
C1809  C1810   1.396   .     A
C1809  H601    1.083   .     S
C1810  C1811   1.374   .     A
C1810  O297    1.381   .     S
C1811  C1812   1.396   .     A
C1811  O298    1.381   .     S
C1812  H602    1.083   .     S
C1813  C1814   1.397   .     A
C1813  H603    1.084   .     S
C1814  C1815   1.412   .     A
C1814  O299    1.395   .     S
C1815  C1816   1.397   .     A
C1815  O300    1.396   .     S
C1816  H604    1.084   .     S
C1817  C1818   1.397   .     A
C1817  H605    1.084   .     S
C1818  C1819   1.412   .     A
C1818  O301    1.396   .     S
C1819  C1820   1.397   .     A
C1819  O302    1.395   .     S
C1820  H606    1.084   .     S
C1821  C1822   1.396   .     A
C1821  H607    1.083   .     S
C1822  C1823   1.374   .     A
C1822  O303    1.381   .     S
C1823  C1824   1.396   .     A
C1823  O304    1.381   .     S
C1824  H608    1.083   .     S
O297   Cu44    1.812   .     S
O298   Cu44    1.812   .     S
O299   Zn11    1.800   .     S
O300   Zn11    1.801   .     S
O301   Zn30    1.801   .     S
O302   Zn30    1.800   .     S
O303   Cu38    1.812   .     S
O304   Cu38    1.812   .     S
C1825  C1826   1.411   .     A
C1825  C1830   1.394   .     A
C1825  H609    1.084   .     S
C1826  C1827   1.435   .     A
C1826  C1861   1.405   .     A
C1827  C1828   1.411   .     A
C1827  C1864   1.405   .     A
C1828  C1829   1.394   .     A
C1828  H610    1.084   .     S
C1829  C1830   1.359   .     A
C1829  C1832   1.377   .     A
C1830  C1831   1.377   .     A
C1831  N305    1.359   .     A
C1831  N312    1.338   .     A
N305   C1832   1.359   .     A
N305   Ni39    1.895   .     S
C1832  N306    1.338   .     A
N306   C1833   1.338   .     A
C1833  N307    1.359   .     A
C1833  C1836   1.377   .     A
N307   C1834   1.359   .     A
N307   Ni39    1.895   .     S
C1834  C1835   1.377   .     A
C1834  N309    1.338   .     A
C1835  C1836   1.359   .     A
C1835  C1844   1.394   .     A
C1836  C1841   1.394   .     A
N308   C1837   1.359   .     A
N308   C1840   1.359   .     A
N308   Ni39    1.895   .     S
C1837  N309    1.338   .     A
C1837  C1838   1.377   .     A
C1838  C1839   1.358   .     A
C1838  C1848   1.394   .     A
C1839  C1840   1.377   .     A
C1839  C1845   1.394   .     A
C1840  N311    1.338   .     A
C1841  C1842   1.411   .     A
C1841  H611    1.084   .     S
C1842  C1843   1.435   .     A
C1842  C1865   1.405   .     A
C1843  C1844   1.411   .     A
C1843  C1868   1.405   .     A
C1844  H612    1.084   .     S
C1845  C1846   1.412   .     A
C1845  H613    1.084   .     S
C1846  C1847   1.432   .     A
C1846  C1869   1.403   .     A
C1847  C1848   1.411   .     A
C1847  C1872   1.403   .     A
C1848  H614    1.084   .     S
N310   C1849   1.359   .     A
N310   C1852   1.359   .     A
N310   Ni39    1.895   .     S
C1849  N311    1.338   .     A
C1849  C1850   1.377   .     A
C1850  C1851   1.358   .     A
C1850  C1856   1.394   .     A
C1851  C1852   1.377   .     A
C1851  C1853   1.394   .     A
C1852  N312    1.338   .     A
C1853  C1854   1.411   .     A
C1853  H615    1.084   .     S
C1854  C1855   1.432   .     A
C1854  C1857   1.403   .     A
C1855  C1856   1.412   .     A
C1855  C1860   1.403   .     A
C1856  H616    1.084   .     S
C1857  C1858   1.397   .     A
C1857  H617    1.084   .     S
C1858  C1859   1.412   .     A
C1858  O305    1.395   .     S
C1859  C1860   1.397   .     A
C1859  O306    1.396   .     S
C1860  H618    1.084   .     S
C1861  C1862   1.396   .     A
C1861  H619    1.083   .     S
C1862  C1863   1.374   .     A
C1862  O307    1.381   .     S
C1863  C1864   1.396   .     A
C1863  O308    1.381   .     S
C1864  H620    1.083   .     S
C1865  C1866   1.396   .     A
C1865  H621    1.083   .     S
C1866  C1867   1.374   .     A
C1866  O309    1.381   .     S
C1867  C1868   1.396   .     A
C1867  O310    1.381   .     S
C1868  H622    1.083   .     S
C1869  C1870   1.397   .     A
C1869  H623    1.084   .     S
C1870  C1871   1.412   .     A
C1870  O311    1.396   .     S
C1871  C1872   1.397   .     A
C1871  O312    1.395   .     S
C1872  H624    1.084   .     S
O305   Zn12    1.800   .     S
O306   Zn12    1.801   .     S
O307   Cu45    1.812   .     S
O308   Cu45    1.812   .     S
O309   Cu39    1.812   .     S
O310   Cu39    1.812   .     S
O311   Zn31    1.801   .     S
O312   Zn31    1.800   .     S
C1873  C1874   1.412   .     A
C1873  C1878   1.394   .     A
C1873  H625    1.084   .     S
C1874  C1875   1.432   .     A
C1874  C1909   1.403   .     A
C1875  C1876   1.411   .     A
C1875  C1912   1.403   .     A
C1876  C1877   1.394   .     A
C1876  H626    1.084   .     S
C1877  C1878   1.358   .     A
C1877  C1880   1.377   .     A
C1878  C1879   1.377   .     A
C1879  N313    1.359   .     A
C1879  N320    1.338   .     A
N313   C1880   1.359   .     A
N313   Ni40    1.895   .     S
C1880  N314    1.338   .     A
N314   C1881   1.338   .     A
C1881  N315    1.359   .     A
C1881  C1884   1.377   .     A
N315   C1882   1.359   .     A
N315   Ni40    1.895   .     S
C1882  C1883   1.377   .     A
C1882  N317    1.338   .     A
C1883  C1884   1.359   .     A
C1883  C1892   1.394   .     A
C1884  C1889   1.394   .     A
N316   C1885   1.359   .     A
N316   C1888   1.359   .     A
N316   Ni40    1.895   .     S
C1885  N317    1.338   .     A
C1885  C1886   1.377   .     A
C1886  C1887   1.359   .     A
C1886  C1896   1.394   .     A
C1887  C1888   1.377   .     A
C1887  C1893   1.394   .     A
C1888  N319    1.338   .     A
C1889  C1890   1.411   .     A
C1889  H627    1.084   .     S
C1890  C1891   1.435   .     A
C1890  C1913   1.405   .     A
C1891  C1892   1.411   .     A
C1891  C1916   1.405   .     A
C1892  H628    1.084   .     S
C1893  C1894   1.411   .     A
C1893  H629    1.084   .     S
C1894  C1895   1.435   .     A
C1894  C1917   1.405   .     A
C1895  C1896   1.411   .     A
C1895  C1920   1.405   .     A
C1896  H630    1.084   .     S
N318   C1897   1.359   .     A
N318   C1900   1.359   .     A
N318   Ni40    1.895   .     S
C1897  N319    1.338   .     A
C1897  C1898   1.377   .     A
C1898  C1899   1.358   .     A
C1898  C1904   1.394   .     A
C1899  C1900   1.377   .     A
C1899  C1901   1.394   .     A
C1900  N320    1.338   .     A
C1901  C1902   1.412   .     A
C1901  H631    1.084   .     S
C1902  C1903   1.432   .     A
C1902  C1905   1.403   .     A
C1903  C1904   1.411   .     A
C1903  C1908   1.403   .     A
C1904  H632    1.084   .     S
C1905  C1906   1.397   .     A
C1905  H633    1.084   .     S
C1906  C1907   1.412   .     A
C1906  O313    1.396   .     S
C1907  C1908   1.397   .     A
C1907  O314    1.395   .     S
C1908  H634    1.084   .     S
C1909  C1910   1.397   .     A
C1909  H635    1.084   .     S
C1910  C1911   1.412   .     A
C1910  O315    1.396   .     S
C1911  C1912   1.397   .     A
C1911  O316    1.395   .     S
C1912  H636    1.084   .     S
C1913  C1914   1.396   .     A
C1913  H637    1.083   .     S
C1914  C1915   1.374   .     A
C1914  O317    1.381   .     S
C1915  C1916   1.396   .     A
C1915  O318    1.381   .     S
C1916  H638    1.083   .     S
C1917  C1918   1.396   .     A
C1917  H639    1.083   .     S
C1918  C1919   1.374   .     A
C1918  O319    1.381   .     S
C1919  C1920   1.396   .     A
C1919  O320    1.381   .     S
C1920  H640    1.083   .     S
O313   Zn32    1.801   .     S
O314   Zn32    1.800   .     S
O315   Zn9     1.801   .     S
O316   Zn9     1.800   .     S
O317   Cu42    1.812   .     S
O318   Cu42    1.812   .     S
O319   Cu40    1.812   .     S
O320   Cu40    1.812   .     S
C1921  C1922   1.412   .     A
C1921  C1926   1.394   .     A
C1921  H641    1.084   .     S
C1922  C1923   1.432   .     A
C1922  C1957   1.403   .     A
C1923  C1924   1.411   .     A
C1923  C1960   1.403   .     A
C1924  C1925   1.394   .     A
C1924  H642    1.084   .     S
C1925  C1926   1.358   .     A
C1925  C1928   1.377   .     A
C1926  C1927   1.377   .     A
C1927  N321    1.359   .     A
C1927  N328    1.338   .     A
N321   C1928   1.359   .     A
N321   Ni41    1.895   .     S
C1928  N322    1.338   .     A
N322   C1929   1.338   .     A
C1929  N323    1.359   .     A
C1929  C1932   1.377   .     A
N323   C1930   1.359   .     A
N323   Ni41    1.895   .     S
C1930  C1931   1.377   .     A
C1930  N325    1.338   .     A
C1931  C1932   1.359   .     A
C1931  C1940   1.394   .     A
C1932  C1937   1.394   .     A
N324   C1933   1.359   .     A
N324   C1936   1.359   .     A
N324   Ni41    1.895   .     S
C1933  N325    1.338   .     A
C1933  C1934   1.377   .     A
C1934  C1935   1.359   .     A
C1934  C1944   1.394   .     A
C1935  C1936   1.377   .     A
C1935  C1941   1.394   .     A
C1936  N327    1.338   .     A
C1937  C1938   1.411   .     A
C1937  H643    1.084   .     S
C1938  C1939   1.435   .     A
C1938  C1961   1.405   .     A
C1939  C1940   1.411   .     A
C1939  C1964   1.405   .     A
C1940  H644    1.084   .     S
C1941  C1942   1.411   .     A
C1941  H645    1.084   .     S
C1942  C1943   1.435   .     A
C1942  C1965   1.405   .     A
C1943  C1944   1.411   .     A
C1943  C1968   1.405   .     A
C1944  H646    1.084   .     S
N326   C1945   1.359   .     A
N326   C1948   1.359   .     A
N326   Ni41    1.895   .     S
C1945  N327    1.338   .     A
C1945  C1946   1.377   .     A
C1946  C1947   1.358   .     A
C1946  C1952   1.394   .     A
C1947  C1948   1.377   .     A
C1947  C1949   1.394   .     A
C1948  N328    1.338   .     A
C1949  C1950   1.412   .     A
C1949  H647    1.084   .     S
C1950  C1951   1.432   .     A
C1950  C1953   1.403   .     A
C1951  C1952   1.411   .     A
C1951  C1956   1.403   .     A
C1952  H648    1.084   .     S
C1953  C1954   1.397   .     A
C1953  H649    1.084   .     S
C1954  C1955   1.412   .     A
C1954  O321    1.396   .     S
C1955  C1956   1.397   .     A
C1955  O322    1.395   .     S
C1956  H650    1.084   .     S
C1957  C1958   1.397   .     A
C1957  H651    1.084   .     S
C1958  C1959   1.412   .     A
C1958  O323    1.396   .     S
C1959  C1960   1.397   .     A
C1959  O324    1.395   .     S
C1960  H652    1.084   .     S
C1961  C1962   1.396   .     A
C1961  H653    1.083   .     S
C1962  C1963   1.374   .     A
C1962  O325    1.381   .     S
C1963  C1964   1.396   .     A
C1963  O326    1.381   .     S
C1964  H654    1.083   .     S
C1965  C1966   1.396   .     A
C1965  H655    1.083   .     S
C1966  C1967   1.374   .     A
C1966  O327    1.381   .     S
C1967  C1968   1.396   .     A
C1967  O328    1.381   .     S
C1968  H656    1.083   .     S
O321   Zn8     1.801   .     S
O322   Zn8     1.800   .     S
O323   Zn33    1.801   .     S
O324   Zn33    1.800   .     S
O325   Cu41    1.812   .     S
O326   Cu41    1.812   .     S
O327   Cu38    1.812   .     S
O328   Cu38    1.812   .     S
C1969  C1970   1.411   .     A
C1969  C1974   1.394   .     A
C1969  H657    1.084   .     S
C1970  C1971   1.432   .     A
C1970  C2005   1.403   .     A
C1971  C1972   1.412   .     A
C1971  C2008   1.403   .     A
C1972  C1973   1.394   .     A
C1972  H658    1.084   .     S
C1973  C1974   1.358   .     A
C1973  C1976   1.377   .     A
C1974  C1975   1.377   .     A
C1975  N329    1.359   .     A
C1975  N336    1.338   .     A
N329   C1976   1.359   .     A
N329   Ni42    1.895   .     S
C1976  N330    1.338   .     A
N330   C1977   1.338   .     A
C1977  N331    1.359   .     A
C1977  C1980   1.377   .     A
N331   C1978   1.359   .     A
N331   Ni42    1.895   .     S
C1978  C1979   1.377   .     A
C1978  N333    1.338   .     A
C1979  C1980   1.358   .     A
C1979  C1988   1.394   .     A
C1980  C1985   1.394   .     A
N332   C1981   1.359   .     A
N332   C1984   1.359   .     A
N332   Ni42    1.895   .     S
C1981  N333    1.338   .     A
C1981  C1982   1.377   .     A
C1982  C1983   1.359   .     A
C1982  C1992   1.394   .     A
C1983  C1984   1.377   .     A
C1983  C1989   1.394   .     A
C1984  N335    1.338   .     A
C1985  C1986   1.412   .     A
C1985  H659    1.084   .     S
C1986  C1987   1.432   .     A
C1986  C2009   1.403   .     A
C1987  C1988   1.411   .     A
C1987  C2012   1.403   .     A
C1988  H660    1.084   .     S
C1989  C1990   1.411   .     A
C1989  H661    1.084   .     S
C1990  C1991   1.435   .     A
C1990  C2013   1.405   .     A
C1991  C1992   1.411   .     A
C1991  C2016   1.405   .     A
C1992  H662    1.084   .     S
N334   C1993   1.359   .     A
N334   C1996   1.359   .     A
N334   Ni42    1.895   .     S
C1993  N335    1.338   .     A
C1993  C1994   1.377   .     A
C1994  C1995   1.359   .     A
C1994  C2000   1.394   .     A
C1995  C1996   1.377   .     A
C1995  C1997   1.394   .     A
C1996  N336    1.338   .     A
C1997  C1998   1.411   .     A
C1997  H663    1.084   .     S
C1998  C1999   1.435   .     A
C1998  C2001   1.405   .     A
C1999  C2000   1.411   .     A
C1999  C2004   1.405   .     A
C2000  H664    1.084   .     S
C2001  C2002   1.396   .     A
C2001  H665    1.083   .     S
C2002  C2003   1.374   .     A
C2002  O329    1.381   .     S
C2003  C2004   1.396   .     A
C2003  O330    1.381   .     S
C2004  H666    1.083   .     S
C2005  C2006   1.397   .     A
C2005  H667    1.084   .     S
C2006  C2007   1.412   .     A
C2006  O331    1.395   .     S
C2007  C2008   1.397   .     A
C2007  O332    1.396   .     S
C2008  H668    1.084   .     S
C2009  C2010   1.397   .     A
C2009  H669    1.084   .     S
C2010  C2011   1.412   .     A
C2010  O333    1.396   .     S
C2011  C2012   1.397   .     A
C2011  O334    1.395   .     S
C2012  H670    1.084   .     S
C2013  C2014   1.396   .     A
C2013  H671    1.083   .     S
C2014  C2015   1.374   .     A
C2014  O335    1.381   .     S
C2015  C2016   1.396   .     A
C2015  O336    1.381   .     S
C2016  H672    1.083   .     S
O329   Cu42    1.812   .     S
O330   Cu42    1.812   .     S
O331   Zn37    1.800   .     S
O332   Zn37    1.801   .     S
O333   Zn2     1.801   .     S
O334   Zn2     1.800   .     S
O335   Cu36    1.812   .     S
O336   Cu36    1.812   .     S
C2017  C2018   1.411   .     A
C2017  C2022   1.394   .     A
C2017  H673    1.084   .     S
C2018  C2019   1.432   .     A
C2018  C2053   1.403   .     A
C2019  C2020   1.412   .     A
C2019  C2056   1.403   .     A
C2020  C2021   1.394   .     A
C2020  H674    1.084   .     S
C2021  C2022   1.358   .     A
C2021  C2024   1.377   .     A
C2022  C2023   1.377   .     A
C2023  N337    1.359   .     A
C2023  N344    1.338   .     A
N337   C2024   1.359   .     A
N337   Ni43    1.895   .     S
C2024  N338    1.338   .     A
N338   C2025   1.338   .     A
C2025  N339    1.359   .     A
C2025  C2028   1.377   .     A
N339   C2026   1.359   .     A
N339   Ni43    1.895   .     S
C2026  C2027   1.377   .     A
C2026  N341    1.338   .     A
C2027  C2028   1.358   .     A
C2027  C2036   1.394   .     A
C2028  C2033   1.394   .     A
N340   C2029   1.359   .     A
N340   C2032   1.359   .     A
N340   Ni43    1.895   .     S
C2029  N341    1.338   .     A
C2029  C2030   1.377   .     A
C2030  C2031   1.359   .     A
C2030  C2040   1.394   .     A
C2031  C2032   1.377   .     A
C2031  C2037   1.394   .     A
C2032  N343    1.338   .     A
C2033  C2034   1.412   .     A
C2033  H675    1.084   .     S
C2034  C2035   1.432   .     A
C2034  C2057   1.403   .     A
C2035  C2036   1.411   .     A
C2035  C2060   1.403   .     A
C2036  H676    1.084   .     S
C2037  C2038   1.411   .     A
C2037  H677    1.084   .     S
C2038  C2039   1.435   .     A
C2038  C2061   1.405   .     A
C2039  C2040   1.411   .     A
C2039  C2064   1.405   .     A
C2040  H678    1.084   .     S
N342   C2041   1.359   .     A
N342   C2044   1.359   .     A
N342   Ni43    1.895   .     S
C2041  N343    1.338   .     A
C2041  C2042   1.377   .     A
C2042  C2043   1.359   .     A
C2042  C2048   1.394   .     A
C2043  C2044   1.377   .     A
C2043  C2045   1.394   .     A
C2044  N344    1.338   .     A
C2045  C2046   1.411   .     A
C2045  H679    1.084   .     S
C2046  C2047   1.435   .     A
C2046  C2049   1.405   .     A
C2047  C2048   1.411   .     A
C2047  C2052   1.405   .     A
C2048  H680    1.084   .     S
C2049  C2050   1.396   .     A
C2049  H681    1.083   .     S
C2050  C2051   1.374   .     A
C2050  O337    1.381   .     S
C2051  C2052   1.396   .     A
C2051  O338    1.381   .     S
C2052  H682    1.083   .     S
C2053  C2054   1.397   .     A
C2053  H683    1.084   .     S
C2054  C2055   1.412   .     A
C2054  O339    1.395   .     S
C2055  C2056   1.397   .     A
C2055  O340    1.396   .     S
C2056  H684    1.084   .     S
C2057  C2058   1.397   .     A
C2057  H685    1.084   .     S
C2058  C2059   1.412   .     A
C2058  O341    1.396   .     S
C2059  C2060   1.397   .     A
C2059  O342    1.395   .     S
C2060  H686    1.084   .     S
C2061  C2062   1.396   .     A
C2061  H687    1.083   .     S
C2062  C2063   1.374   .     A
C2062  O343    1.381   .     S
C2063  C2064   1.396   .     A
C2063  O344    1.381   .     S
C2064  H688    1.083   .     S
O337   Cu33    1.812   .     S
O338   Cu33    1.812   .     S
O339   Zn3     1.800   .     S
O340   Zn3     1.801   .     S
O341   Zn38    1.801   .     S
O342   Zn38    1.800   .     S
O343   Cu43    1.812   .     S
O344   Cu43    1.812   .     S
C2065  C2066   1.411   .     A
C2065  C2070   1.394   .     A
C2065  H689    1.084   .     S
C2066  C2067   1.435   .     A
C2066  C2101   1.405   .     A
C2067  C2068   1.411   .     A
C2067  C2104   1.405   .     A
C2068  C2069   1.394   .     A
C2068  H690    1.084   .     S
C2069  C2070   1.359   .     A
C2069  C2072   1.377   .     A
C2070  C2071   1.377   .     A
C2071  N345    1.359   .     A
C2071  N352    1.338   .     A
N345   C2072   1.359   .     A
N345   Ni44    1.895   .     S
C2072  N346    1.338   .     A
N346   C2073   1.338   .     A
C2073  N347    1.359   .     A
C2073  C2076   1.377   .     A
N347   C2074   1.359   .     A
N347   Ni44    1.895   .     S
C2074  C2075   1.377   .     A
C2074  N349    1.338   .     A
C2075  C2076   1.358   .     A
C2075  C2084   1.394   .     A
C2076  C2081   1.394   .     A
N348   C2077   1.359   .     A
N348   C2080   1.359   .     A
N348   Ni44    1.895   .     S
C2077  N349    1.338   .     A
C2077  C2078   1.377   .     A
C2078  C2079   1.358   .     A
C2078  C2088   1.394   .     A
C2079  C2080   1.377   .     A
C2079  C2085   1.394   .     A
C2080  N351    1.338   .     A
C2081  C2082   1.411   .     A
C2081  H691    1.084   .     S
C2082  C2083   1.432   .     A
C2082  C2105   1.403   .     A
C2083  C2084   1.412   .     A
C2083  C2108   1.403   .     A
C2084  H692    1.084   .     S
C2085  C2086   1.411   .     A
C2085  H693    1.084   .     S
C2086  C2087   1.432   .     A
C2086  C2109   1.403   .     A
C2087  C2088   1.412   .     A
C2087  C2112   1.403   .     A
C2088  H694    1.084   .     S
N350   C2089   1.359   .     A
N350   C2092   1.359   .     A
N350   Ni44    1.895   .     S
C2089  N351    1.338   .     A
C2089  C2090   1.377   .     A
C2090  C2091   1.359   .     A
C2090  C2096   1.394   .     A
C2091  C2092   1.377   .     A
C2091  C2093   1.394   .     A
C2092  N352    1.338   .     A
C2093  C2094   1.411   .     A
C2093  H695    1.084   .     S
C2094  C2095   1.435   .     A
C2094  C2097   1.405   .     A
C2095  C2096   1.411   .     A
C2095  C2100   1.405   .     A
C2096  H696    1.084   .     S
C2097  C2098   1.396   .     A
C2097  H697    1.083   .     S
C2098  C2099   1.374   .     A
C2098  O345    1.381   .     S
C2099  C2100   1.396   .     A
C2099  O346    1.381   .     S
C2100  H698    1.083   .     S
C2101  C2102   1.396   .     A
C2101  H699    1.083   .     S
C2102  C2103   1.374   .     A
C2102  O347    1.381   .     S
C2103  C2104   1.396   .     A
C2103  O348    1.381   .     S
C2104  H700    1.083   .     S
C2105  C2106   1.397   .     A
C2105  H701    1.084   .     S
C2106  C2107   1.412   .     A
C2106  O349    1.395   .     S
C2107  C2108   1.397   .     A
C2107  O350    1.396   .     S
C2108  H702    1.084   .     S
C2109  C2110   1.397   .     A
C2109  H703    1.084   .     S
C2110  C2111   1.412   .     A
C2110  O351    1.395   .     S
C2111  C2112   1.397   .     A
C2111  O352    1.396   .     S
C2112  H704    1.084   .     S
O345   Cu44    1.812   .     S
O346   Cu44    1.812   .     S
O347   Cu34    1.812   .     S
O348   Cu34    1.812   .     S
O349   Zn4     1.800   .     S
O350   Zn4     1.801   .     S
O351   Zn39    1.800   .     S
O352   Zn39    1.801   .     S
C2113  C2114   1.411   .     A
C2113  C2118   1.394   .     A
C2113  H705    1.084   .     S
C2114  C2115   1.435   .     A
C2114  C2149   1.405   .     A
C2115  C2116   1.411   .     A
C2115  C2152   1.405   .     A
C2116  C2117   1.394   .     A
C2116  H706    1.084   .     S
C2117  C2118   1.359   .     A
C2117  C2120   1.377   .     A
C2118  C2119   1.377   .     A
C2119  N353    1.359   .     A
C2119  N360    1.338   .     A
N353   C2120   1.359   .     A
N353   Ni45    1.895   .     S
C2120  N354    1.338   .     A
N354   C2121   1.338   .     A
C2121  N355    1.359   .     A
C2121  C2124   1.377   .     A
N355   C2122   1.359   .     A
N355   Ni45    1.895   .     S
C2122  C2123   1.377   .     A
C2122  N357    1.338   .     A
C2123  C2124   1.358   .     A
C2123  C2132   1.394   .     A
C2124  C2129   1.394   .     A
N356   C2125   1.359   .     A
N356   C2128   1.359   .     A
N356   Ni45    1.895   .     S
C2125  N357    1.338   .     A
C2125  C2126   1.377   .     A
C2126  C2127   1.358   .     A
C2126  C2136   1.394   .     A
C2127  C2128   1.377   .     A
C2127  C2133   1.394   .     A
C2128  N359    1.338   .     A
C2129  C2130   1.411   .     A
C2129  H707    1.084   .     S
C2130  C2131   1.432   .     A
C2130  C2153   1.403   .     A
C2131  C2132   1.412   .     A
C2131  C2156   1.403   .     A
C2132  H708    1.084   .     S
C2133  C2134   1.411   .     A
C2133  H709    1.084   .     S
C2134  C2135   1.432   .     A
C2134  C2157   1.403   .     A
C2135  C2136   1.412   .     A
C2135  C2160   1.403   .     A
C2136  H710    1.084   .     S
N358   C2137   1.359   .     A
N358   C2140   1.359   .     A
N358   Ni45    1.895   .     S
C2137  N359    1.338   .     A
C2137  C2138   1.377   .     A
C2138  C2139   1.359   .     A
C2138  C2144   1.394   .     A
C2139  C2140   1.377   .     A
C2139  C2141   1.394   .     A
C2140  N360    1.338   .     A
C2141  C2142   1.411   .     A
C2141  H711    1.084   .     S
C2142  C2143   1.435   .     A
C2142  C2145   1.405   .     A
C2143  C2144   1.411   .     A
C2143  C2148   1.405   .     A
C2144  H712    1.084   .     S
C2145  C2146   1.396   .     A
C2145  H713    1.083   .     S
C2146  C2147   1.374   .     A
C2146  O353    1.381   .     S
C2147  C2148   1.396   .     A
C2147  O354    1.381   .     S
C2148  H714    1.083   .     S
C2149  C2150   1.396   .     A
C2149  H715    1.083   .     S
C2150  C2151   1.374   .     A
C2150  O355    1.381   .     S
C2151  C2152   1.396   .     A
C2151  O356    1.381   .     S
C2152  H716    1.083   .     S
C2153  C2154   1.397   .     A
C2153  H717    1.084   .     S
C2154  C2155   1.412   .     A
C2154  O357    1.395   .     S
C2155  C2156   1.397   .     A
C2155  O358    1.396   .     S
C2156  H718    1.084   .     S
C2157  C2158   1.397   .     A
C2157  H719    1.084   .     S
C2158  C2159   1.412   .     A
C2158  O359    1.395   .     S
C2159  C2160   1.397   .     A
C2159  O360    1.396   .     S
C2160  H720    1.084   .     S
O353   Cu35    1.812   .     S
O354   Cu35    1.812   .     S
O355   Cu45    1.812   .     S
O356   Cu45    1.812   .     S
O357   Zn40    1.800   .     S
O358   Zn40    1.801   .     S
O359   Zn1     1.800   .     S
O360   Zn1     1.801   .     S
C2161  C2162   1.411   .     A
C2161  C2166   1.394   .     A
C2161  H721    1.084   .     S
C2162  C2163   1.435   .     A
C2162  C2197   1.405   .     A
C2163  C2164   1.411   .     A
C2163  C2200   1.405   .     A
C2164  C2165   1.394   .     A
C2164  H722    1.084   .     S
C2165  C2166   1.359   .     A
C2165  C2168   1.377   .     A
C2166  C2167   1.377   .     A
C2167  N361    1.359   .     A
C2167  N368    1.338   .     A
N361   C2168   1.359   .     A
N361   Ni46    1.895   .     S
C2168  N362    1.338   .     A
N362   C2169   1.338   .     A
C2169  N363    1.359   .     A
C2169  C2172   1.377   .     A
N363   C2170   1.359   .     A
N363   Ni46    1.895   .     S
C2170  C2171   1.377   .     A
C2170  N365    1.338   .     A
C2171  C2172   1.359   .     A
C2171  C2180   1.394   .     A
C2172  C2177   1.394   .     A
N364   C2173   1.359   .     A
N364   C2176   1.359   .     A
N364   Ni46    1.895   .     S
C2173  N365    1.338   .     A
C2173  C2174   1.377   .     A
C2174  C2175   1.358   .     A
C2174  C2184   1.394   .     A
C2175  C2176   1.377   .     A
C2175  C2181   1.394   .     A
C2176  N367    1.338   .     A
C2177  C2178   1.411   .     A
C2177  H723    1.084   .     S
C2178  C2179   1.435   .     A
C2178  C2201   1.405   .     A
C2179  C2180   1.411   .     A
C2179  C2204   1.405   .     A
C2180  H724    1.084   .     S
C2181  C2182   1.412   .     A
C2181  H725    1.084   .     S
C2182  C2183   1.432   .     A
C2182  C2205   1.403   .     A
C2183  C2184   1.411   .     A
C2183  C2208   1.403   .     A
C2184  H726    1.084   .     S
N366   C2185   1.359   .     A
N366   C2188   1.359   .     A
N366   Ni46    1.895   .     S
C2185  N367    1.338   .     A
C2185  C2186   1.377   .     A
C2186  C2187   1.358   .     A
C2186  C2192   1.394   .     A
C2187  C2188   1.377   .     A
C2187  C2189   1.394   .     A
C2188  N368    1.338   .     A
C2189  C2190   1.411   .     A
C2189  H727    1.084   .     S
C2190  C2191   1.432   .     A
C2190  C2193   1.403   .     A
C2191  C2192   1.412   .     A
C2191  C2196   1.403   .     A
C2192  H728    1.084   .     S
C2193  C2194   1.397   .     A
C2193  H729    1.084   .     S
C2194  C2195   1.412   .     A
C2194  O361    1.395   .     S
C2195  C2196   1.397   .     A
C2195  O362    1.396   .     S
C2196  H730    1.084   .     S
C2197  C2198   1.396   .     A
C2197  H731    1.083   .     S
C2198  C2199   1.374   .     A
C2198  O363    1.381   .     S
C2199  C2200   1.396   .     A
C2199  O364    1.381   .     S
C2200  H732    1.083   .     S
C2201  C2202   1.396   .     A
C2201  H733    1.083   .     S
C2202  C2203   1.374   .     A
C2202  O365    1.381   .     S
C2203  C2204   1.396   .     A
C2203  O366    1.381   .     S
C2204  H734    1.083   .     S
C2205  C2206   1.397   .     A
C2205  H735    1.084   .     S
C2206  C2207   1.412   .     A
C2206  O367    1.396   .     S
C2207  C2208   1.397   .     A
C2207  O368    1.395   .     S
C2208  H736    1.084   .     S
O361   Zn6     1.800   .     S
O362   Zn6     1.801   .     S
O363   Cu40    1.812   .     S
O364   Cu40    1.812   .     S
O365   Cu46    1.812   .     S
O366   Cu46    1.812   .     S
O367   Zn35    1.801   .     S
O368   Zn35    1.800   .     S
C2209  C2210   1.411   .     A
C2209  C2214   1.394   .     A
C2209  H737    1.084   .     S
C2210  C2211   1.432   .     A
C2210  C2245   1.403   .     A
C2211  C2212   1.412   .     A
C2211  C2248   1.403   .     A
C2212  C2213   1.394   .     A
C2212  H738    1.084   .     S
C2213  C2214   1.358   .     A
C2213  C2216   1.377   .     A
C2214  C2215   1.377   .     A
C2215  N369    1.359   .     A
C2215  N376    1.338   .     A
N369   C2216   1.359   .     A
N369   Ni47    1.895   .     S
C2216  N370    1.338   .     A
N370   C2217   1.338   .     A
C2217  N371    1.359   .     A
C2217  C2220   1.377   .     A
N371   C2218   1.359   .     A
N371   Ni47    1.895   .     S
C2218  C2219   1.377   .     A
C2218  N373    1.338   .     A
C2219  C2220   1.358   .     A
C2219  C2228   1.394   .     A
C2220  C2225   1.394   .     A
N372   C2221   1.359   .     A
N372   C2224   1.359   .     A
N372   Ni47    1.895   .     S
C2221  N373    1.338   .     A
C2221  C2222   1.377   .     A
C2222  C2223   1.359   .     A
C2222  C2232   1.394   .     A
C2223  C2224   1.377   .     A
C2223  C2229   1.394   .     A
C2224  N375    1.338   .     A
C2225  C2226   1.412   .     A
C2225  H739    1.084   .     S
C2226  C2227   1.432   .     A
C2226  C2249   1.403   .     A
C2227  C2228   1.411   .     A
C2227  C2252   1.403   .     A
C2228  H740    1.084   .     S
C2229  C2230   1.411   .     A
C2229  H741    1.084   .     S
C2230  C2231   1.435   .     A
C2230  C2253   1.405   .     A
C2231  C2232   1.411   .     A
C2231  C2256   1.405   .     A
C2232  H742    1.084   .     S
N374   C2233   1.359   .     A
N374   C2236   1.359   .     A
N374   Ni47    1.895   .     S
C2233  N375    1.338   .     A
C2233  C2234   1.377   .     A
C2234  C2235   1.359   .     A
C2234  C2240   1.394   .     A
C2235  C2236   1.377   .     A
C2235  C2237   1.394   .     A
C2236  N376    1.338   .     A
C2237  C2238   1.411   .     A
C2237  H743    1.084   .     S
C2238  C2239   1.435   .     A
C2238  C2241   1.405   .     A
C2239  C2240   1.411   .     A
C2239  C2244   1.405   .     A
C2240  H744    1.084   .     S
C2241  C2242   1.396   .     A
C2241  H745    1.083   .     S
C2242  C2243   1.374   .     A
C2242  O369    1.381   .     S
C2243  C2244   1.396   .     A
C2243  O370    1.381   .     S
C2244  H746    1.083   .     S
C2245  C2246   1.397   .     A
C2245  H747    1.084   .     S
C2246  C2247   1.412   .     A
C2246  O371    1.395   .     S
C2247  C2248   1.397   .     A
C2247  O372    1.396   .     S
C2248  H748    1.084   .     S
C2249  C2250   1.397   .     A
C2249  H749    1.084   .     S
C2250  C2251   1.412   .     A
C2250  O373    1.396   .     S
C2251  C2252   1.397   .     A
C2251  O374    1.395   .     S
C2252  H750    1.084   .     S
C2253  C2254   1.396   .     A
C2253  H751    1.083   .     S
C2254  C2255   1.374   .     A
C2254  O375    1.381   .     S
C2255  C2256   1.396   .     A
C2255  O376    1.381   .     S
C2256  H752    1.083   .     S
O369   Cu37    1.812   .     S
O370   Cu37    1.812   .     S
O371   Zn7     1.800   .     S
O372   Zn7     1.801   .     S
O373   Zn36    1.801   .     S
O374   Zn36    1.800   .     S
O375   Cu47    1.812   .     S
O376   Cu47    1.812   .     S
C2257  C2258   1.412   .     A
C2257  C2262   1.394   .     A
C2257  H753    1.084   .     S
C2258  C2259   1.432   .     A
C2258  C2293   1.403   .     A
C2259  C2260   1.411   .     A
C2259  C2296   1.403   .     A
C2260  C2261   1.394   .     A
C2260  H754    1.084   .     S
C2261  C2262   1.358   .     A
C2261  C2264   1.377   .     A
C2262  C2263   1.377   .     A
C2263  N377    1.359   .     A
C2263  N384    1.338   .     A
N377   C2264   1.359   .     A
N377   Ni48    1.895   .     S
C2264  N378    1.338   .     A
N378   C2265   1.338   .     A
C2265  N379    1.359   .     A
C2265  C2268   1.377   .     A
N379   C2266   1.359   .     A
N379   Ni48    1.895   .     S
C2266  C2267   1.377   .     A
C2266  N381    1.338   .     A
C2267  C2268   1.359   .     A
C2267  C2276   1.394   .     A
C2268  C2273   1.394   .     A
N380   C2269   1.359   .     A
N380   C2272   1.359   .     A
N380   Ni48    1.895   .     S
C2269  N381    1.338   .     A
C2269  C2270   1.377   .     A
C2270  C2271   1.359   .     A
C2270  C2280   1.394   .     A
C2271  C2272   1.377   .     A
C2271  C2277   1.394   .     A
C2272  N383    1.338   .     A
C2273  C2274   1.411   .     A
C2273  H755    1.084   .     S
C2274  C2275   1.435   .     A
C2274  C2297   1.405   .     A
C2275  C2276   1.411   .     A
C2275  C2300   1.405   .     A
C2276  H756    1.084   .     S
C2277  C2278   1.411   .     A
C2277  H757    1.084   .     S
C2278  C2279   1.435   .     A
C2278  C2301   1.405   .     A
C2279  C2280   1.411   .     A
C2279  C2304   1.405   .     A
C2280  H758    1.084   .     S
N382   C2281   1.359   .     A
N382   C2284   1.359   .     A
N382   Ni48    1.895   .     S
C2281  N383    1.338   .     A
C2281  C2282   1.377   .     A
C2282  C2283   1.358   .     A
C2282  C2288   1.394   .     A
C2283  C2284   1.377   .     A
C2283  C2285   1.394   .     A
C2284  N384    1.338   .     A
C2285  C2286   1.412   .     A
C2285  H759    1.084   .     S
C2286  C2287   1.432   .     A
C2286  C2289   1.403   .     A
C2287  C2288   1.411   .     A
C2287  C2292   1.403   .     A
C2288  H760    1.084   .     S
C2289  C2290   1.397   .     A
C2289  H761    1.084   .     S
C2290  C2291   1.412   .     A
C2290  O377    1.396   .     S
C2291  C2292   1.397   .     A
C2291  O378    1.395   .     S
C2292  H762    1.084   .     S
C2293  C2294   1.397   .     A
C2293  H763    1.084   .     S
C2294  C2295   1.412   .     A
C2294  O379    1.396   .     S
C2295  C2296   1.397   .     A
C2295  O380    1.395   .     S
C2296  H764    1.084   .     S
C2297  C2298   1.396   .     A
C2297  H765    1.083   .     S
C2298  C2299   1.374   .     A
C2298  O381    1.381   .     S
C2299  C2300   1.396   .     A
C2299  O382    1.381   .     S
C2300  H766    1.083   .     S
C2301  C2302   1.396   .     A
C2301  H767    1.083   .     S
C2302  C2303   1.374   .     A
C2302  O383    1.381   .     S
C2303  C2304   1.396   .     A
C2303  O384    1.381   .     S
C2304  H768    1.083   .     S
O377   Zn34    1.801   .     S
O378   Zn34    1.800   .     S
O379   Zn5     1.801   .     S
O380   Zn5     1.800   .     S
O381   Cu39    1.812   .     S
O382   Cu39    1.812   .     S
O383   Cu48    1.812   .     S
O384   Cu48    1.812   .     S
Cu1    O3      1.812   1_565 S
Cu1    O4      1.812   1_565 S
Cu2    O14     1.812   1_455 S
Cu2    O13     1.812   1_455 S
Cu3    O11     1.812   1_565 S
Cu3    O12     1.812   1_565 S
Cu4    O22     1.812   1_455 S
Cu4    O21     1.812   1_455 S
Cu5    O43     1.812   1_565 S
Cu5    O44     1.812   1_565 S
Cu6    O54     1.812   1_455 S
Cu6    O53     1.812   1_455 S
Cu7    O51     1.812   1_565 S
Cu7    O52     1.812   1_565 S
Cu8    O62     1.812   1_455 S
Cu8    O61     1.812   1_455 S
Cu9    O150    1.812   1_554 S
Cu9    O149    1.812   1_554 S
Cu10   O75     1.812   1_556 S
Cu10   O76     1.812   1_556 S
Cu11   O166    1.812   1_554 S
Cu11   O165    1.812   1_554 S
Cu12   O140    1.812   1_554 S
Cu12   O139    1.812   1_554 S
Cu13   O97     1.812   1_554 S
Cu13   O98     1.812   1_554 S
Cu14   O111    1.812   1_554 S
Cu14   O112    1.812   1_554 S
Cu15   O189    1.812   1_556 S
Cu15   O190    1.812   1_556 S
Cu16   O171    1.812   1_556 S
Cu16   O172    1.812   1_556 S
Cu17   O133    1.812   1_655 S
Cu17   O134    1.812   1_655 S
Cu18   O126    1.812   1_455 S
Cu18   O125    1.812   1_455 S
Cu19   O148    1.812   1_565 S
Cu19   O147    1.812   1_565 S
Cu20   O157    1.812   1_455 S
Cu20   O158    1.812   1_455 S
Cu21   O116    1.812   1_565 S
Cu21   O115    1.812   1_565 S
Cu22   O174    1.812   1_455 S
Cu22   O173    1.812   1_455 S
Cu23   O71     1.812   1_565 S
Cu23   O72     1.812   1_565 S
Cu24   O191    1.812   1_565 S
Cu24   O192    1.812   1_565 S
