data_tfc-TN_O-PcMN_O-Zntet
_audit_creation_date              2021-11-06
_audit_creation_method            'Materials Studio'
_symmetry_space_group_name_H-M    'P1'
_symmetry_Int_Tables_number       1
_symmetry_cell_setting            triclinic
loop_
_symmetry_equiv_pos_as_xyz
  x,y,z
_cell_length_a                    29.8887
_cell_length_b                    96.1254
_cell_length_c                    22.7687
_cell_angle_alpha                 89.8988
_cell_angle_beta                  90.0002
_cell_angle_gamma                 89.9998
loop_
_atom_site_label
_atom_site_type_symbol
_atom_site_fract_x
_atom_site_fract_y
_atom_site_fract_z
_atom_site_U_iso_or_equiv
_atom_site_adp_type
_atom_site_occupancy
C1     C     0.95244   0.29612   0.00495   0.00000  Uiso   1.00
C2     C     0.97613   0.28337  -0.00295   0.00000  Uiso   1.00
C3     C     0.02398   0.28337  -0.00298   0.00000  Uiso   1.00
C4     C     0.04765   0.29612   0.00498   0.00000  Uiso   1.00
C5     C     0.02389   0.30899   0.00509   0.00000  Uiso   1.00
C6     C     0.97621   0.30899   0.00506   0.00000  Uiso   1.00
C7     C     0.09479   0.29563   0.01293   0.00000  Uiso   1.00
C8     C     0.11870   0.28321   0.00826   0.00000  Uiso   1.00
C9     C     0.09572   0.27075  -0.00365   0.00000  Uiso   1.00
C10    C     0.04917   0.27089  -0.00879   0.00000  Uiso   1.00
C11    C     0.90530   0.29563   0.01286   0.00000  Uiso   1.00
C12    C     0.88140   0.28321   0.00826   0.00000  Uiso   1.00
C13    C     0.90439   0.27075  -0.00351   0.00000  Uiso   1.00
C14    C     0.95094   0.27088  -0.00862   0.00000  Uiso   1.00
C15    C     0.95348   0.32198   0.00323   0.00000  Uiso   1.00
C16    C     0.97656   0.33461   0.00363   0.00000  Uiso   1.00
C17    C     0.02355   0.33461   0.00366   0.00000  Uiso   1.00
C18    C     0.04663   0.32198   0.00329   0.00000  Uiso   1.00
C19    C     0.04699   0.34730   0.00315   0.00000  Uiso   1.00
C20    C     0.02364   0.35989   0.00309   0.00000  Uiso   1.00
C21    C     0.97647   0.35989   0.00307   0.00000  Uiso   1.00
C22    C     0.95312   0.34730   0.00310   0.00000  Uiso   1.00
C23    C     0.11981   0.25822  -0.00907   0.00000  Uiso   1.00
C24    C     0.16622   0.25833  -0.00235   0.00000  Uiso   1.00
C25    C     0.18859   0.27047   0.00961   0.00000  Uiso   1.00
C26    C     0.16555   0.28303   0.01517   0.00000  Uiso   1.00
H1     H     0.11396   0.30470   0.02456   0.00000  Uiso   1.00
H2     H     0.03388   0.26096  -0.01695   0.00000  Uiso   1.00
H3     H     0.88612   0.30471   0.02442   0.00000  Uiso   1.00
H4     H     0.96624   0.26095  -0.01660   0.00000  Uiso   1.00
H5     H     0.91764   0.32267  -0.00059   0.00000  Uiso   1.00
H6     H     0.08247   0.32267  -0.00050   0.00000  Uiso   1.00
H7     H     0.08324   0.34747   0.00303   0.00000  Uiso   1.00
O1     O     0.04664   0.37252   0.00313   0.00000  Uiso   1.00
O2     O     0.95347   0.37252   0.00311   0.00000  Uiso   1.00
H8     H     0.91686   0.34747   0.00294   0.00000  Uiso   1.00
H9     H     0.10287   0.24849  -0.01815   0.00000  Uiso   1.00
O3     O     0.19218   0.24650  -0.00701   0.00000  Uiso   1.00
O4     O     0.23446   0.26941   0.01554   0.00000  Uiso   1.00
H10    H     0.18396   0.29248   0.02446   0.00000  Uiso   1.00
C27    C     0.88031   0.25821  -0.00883   0.00000  Uiso   1.00
C28    C     0.83390   0.25832  -0.00216   0.00000  Uiso   1.00
C29    C     0.81151   0.27046   0.00968   0.00000  Uiso   1.00
C30    C     0.83455   0.28303   0.01514   0.00000  Uiso   1.00
H11    H     0.89726   0.24847  -0.01781   0.00000  Uiso   1.00
O5     O     0.80794   0.24649  -0.00673   0.00000  Uiso   1.00
O6     O     0.76564   0.26941   0.01557   0.00000  Uiso   1.00
H12    H     0.81613   0.29248   0.02434   0.00000  Uiso   1.00
C31    C     0.95246   0.70663   0.00493   0.00000  Uiso   1.00
C32    C     0.97613   0.71938   0.01304   0.00000  Uiso   1.00
C33    C     0.02398   0.71938   0.01304   0.00000  Uiso   1.00
C34    C     0.04765   0.70663   0.00490   0.00000  Uiso   1.00
C35    C     0.02390   0.69376   0.00475   0.00000  Uiso   1.00
C36    C     0.97622   0.69376   0.00476   0.00000  Uiso   1.00
C37    C     0.09477   0.70713  -0.00319   0.00000  Uiso   1.00
C38    C     0.11868   0.71954   0.00154   0.00000  Uiso   1.00
C39    C     0.09573   0.73199   0.01368   0.00000  Uiso   1.00
C40    C     0.04918   0.73185   0.01895   0.00000  Uiso   1.00
C41    C     0.90534   0.70713  -0.00313   0.00000  Uiso   1.00
C42    C     0.88143   0.71954   0.00161   0.00000  Uiso   1.00
C43    C     0.90439   0.73199   0.01370   0.00000  Uiso   1.00
C44    C     0.95093   0.73185   0.01891   0.00000  Uiso   1.00
C45    C     0.95348   0.68078   0.00656   0.00000  Uiso   1.00
C46    C     0.97656   0.66814   0.00615   0.00000  Uiso   1.00
C47    C     0.02356   0.66814   0.00612   0.00000  Uiso   1.00
C48    C     0.04664   0.68077   0.00652   0.00000  Uiso   1.00
C49    C     0.04699   0.65545   0.00660   0.00000  Uiso   1.00
C50    C     0.02364   0.64287   0.00664   0.00000  Uiso   1.00
C51    C     0.97646   0.64287   0.00668   0.00000  Uiso   1.00
C52    C     0.95312   0.65545   0.00668   0.00000  Uiso   1.00
C53    C     0.11983   0.74452   0.01918   0.00000  Uiso   1.00
C54    C     0.16623   0.74441   0.01226   0.00000  Uiso   1.00
C55    C     0.18857   0.73229   0.00005   0.00000  Uiso   1.00
C56    C     0.16551   0.71973  -0.00555   0.00000  Uiso   1.00
H13    H     0.11390   0.69806  -0.01500   0.00000  Uiso   1.00
H14    H     0.03390   0.74177   0.02726   0.00000  Uiso   1.00
H15    H     0.88621   0.69805  -0.01494   0.00000  Uiso   1.00
H16    H     0.96622   0.74178   0.02713   0.00000  Uiso   1.00
H17    H     0.91764   0.68009   0.01041   0.00000  Uiso   1.00
H18    H     0.08248   0.68008   0.01035   0.00000  Uiso   1.00
H19    H     0.08324   0.65528   0.00673   0.00000  Uiso   1.00
O7     O     0.04662   0.63023   0.00657   0.00000  Uiso   1.00
O8     O     0.95346   0.63023   0.00664   0.00000  Uiso   1.00
H20    H     0.91686   0.65529   0.00687   0.00000  Uiso   1.00
H21    H     0.10292   0.75424   0.02846   0.00000  Uiso   1.00
O9     O     0.19221   0.75624   0.01694   0.00000  Uiso   1.00
O10    O     0.23442   0.73334  -0.00607   0.00000  Uiso   1.00
H22    H     0.18390   0.71028  -0.01503   0.00000  Uiso   1.00
C57    C     0.88028   0.74452   0.01919   0.00000  Uiso   1.00
C58    C     0.83388   0.74441   0.01235   0.00000  Uiso   1.00
C59    C     0.81153   0.73228   0.00021   0.00000  Uiso   1.00
C60    C     0.83459   0.71972  -0.00541   0.00000  Uiso   1.00
H23    H     0.89719   0.75425   0.02841   0.00000  Uiso   1.00
O11    O     0.80790   0.75623   0.01702   0.00000  Uiso   1.00
O12    O     0.76567   0.73333  -0.00583   0.00000  Uiso   1.00
H24    H     0.81621   0.71027  -0.01487   0.00000  Uiso   1.00
C61    C     0.45246   0.79611   0.00482   0.00000  Uiso   1.00
C62    C     0.47613   0.78336  -0.00328   0.00000  Uiso   1.00
C63    C     0.52398   0.78336  -0.00326   0.00000  Uiso   1.00
C64    C     0.54766   0.79611   0.00477   0.00000  Uiso   1.00
C65    C     0.52390   0.80898   0.00488   0.00000  Uiso   1.00
C66    C     0.47622   0.80898   0.00492   0.00000  Uiso   1.00
C67    C     0.59478   0.79562   0.01282   0.00000  Uiso   1.00
C68    C     0.61868   0.78320   0.00820   0.00000  Uiso   1.00
C69    C     0.59572   0.77074  -0.00380   0.00000  Uiso   1.00
C70    C     0.54918   0.77088  -0.00903   0.00000  Uiso   1.00
C71    C     0.40535   0.79561   0.01293   0.00000  Uiso   1.00
C72    C     0.38144   0.78320   0.00821   0.00000  Uiso   1.00
C73    C     0.40438   0.77075  -0.00394   0.00000  Uiso   1.00
C74    C     0.45093   0.77089  -0.00919   0.00000  Uiso   1.00
C75    C     0.45348   0.82196   0.00310   0.00000  Uiso   1.00
C76    C     0.47655   0.83460   0.00345   0.00000  Uiso   1.00
C77    C     0.52355   0.83460   0.00343   0.00000  Uiso   1.00
C78    C     0.54663   0.82197   0.00303   0.00000  Uiso   1.00
C79    C     0.54698   0.84729   0.00290   0.00000  Uiso   1.00
C80    C     0.52363   0.85988   0.00285   0.00000  Uiso   1.00
C81    C     0.47646   0.85987   0.00285   0.00000  Uiso   1.00
C82    C     0.45311   0.84729   0.00291   0.00000  Uiso   1.00
C83    C     0.61982   0.75821  -0.00919   0.00000  Uiso   1.00
C84    C     0.66622   0.75832  -0.00231   0.00000  Uiso   1.00
C85    C     0.68857   0.77045   0.00978   0.00000  Uiso   1.00
C86    C     0.66552   0.78301   0.01528   0.00000  Uiso   1.00
H25    H     0.61392   0.80469   0.02454   0.00000  Uiso   1.00
H26    H     0.53388   0.76095  -0.01714   0.00000  Uiso   1.00
H27    H     0.38623   0.80469   0.02476   0.00000  Uiso   1.00
H28    H     0.46621   0.76097  -0.01749   0.00000  Uiso   1.00
H29    H     0.41763   0.82265  -0.00072   0.00000  Uiso   1.00
H30    H     0.58247   0.82266  -0.00084   0.00000  Uiso   1.00
H31    H     0.58324   0.84746   0.00275   0.00000  Uiso   1.00
O13    O     0.54662   0.87251   0.00290   0.00000  Uiso   1.00
O14    O     0.45346   0.87251   0.00287   0.00000  Uiso   1.00
H32    H     0.41686   0.84745   0.00278   0.00000  Uiso   1.00
H33    H     0.60290   0.74848  -0.01837   0.00000  Uiso   1.00
O15    O     0.69219   0.74649  -0.00691   0.00000  Uiso   1.00
O16    O     0.73442   0.76940   0.01589   0.00000  Uiso   1.00
H34    H     0.68391   0.79246   0.02467   0.00000  Uiso   1.00
C87    C     0.38027   0.75822  -0.00945   0.00000  Uiso   1.00
C88    C     0.33388   0.75833  -0.00253   0.00000  Uiso   1.00
C89    C     0.31154   0.77046   0.00970   0.00000  Uiso   1.00
C90    C     0.33461   0.78301   0.01533   0.00000  Uiso   1.00
H35    H     0.39718   0.74850  -0.01873   0.00000  Uiso   1.00
O17    O     0.30790   0.74651  -0.00721   0.00000  Uiso   1.00
O18    O     0.26569   0.76940   0.01583   0.00000  Uiso   1.00
H36    H     0.31623   0.79246   0.02485   0.00000  Uiso   1.00
C91    C     0.45245   0.20662   0.00465   0.00000  Uiso   1.00
C92    C     0.47613   0.21937   0.01262   0.00000  Uiso   1.00
C93    C     0.52398   0.21937   0.01262   0.00000  Uiso   1.00
C94    C     0.54766   0.20662   0.00471   0.00000  Uiso   1.00
C95    C     0.52389   0.19375   0.00458   0.00000  Uiso   1.00
C96    C     0.47621   0.19375   0.00455   0.00000  Uiso   1.00
C97    C     0.59480   0.20711  -0.00319   0.00000  Uiso   1.00
C98    C     0.61870   0.21953   0.00146   0.00000  Uiso   1.00
C99    C     0.59572   0.23199   0.01326   0.00000  Uiso   1.00
C100   C     0.54917   0.23186   0.01834   0.00000  Uiso   1.00
C101   C     0.40531   0.20711  -0.00332   0.00000  Uiso   1.00
C102   C     0.38141   0.21953   0.00135   0.00000  Uiso   1.00
C103   C     0.40438   0.23199   0.01327   0.00000  Uiso   1.00
C104   C     0.45093   0.23185   0.01842   0.00000  Uiso   1.00
C105   C     0.45347   0.18076   0.00635   0.00000  Uiso   1.00
C106   C     0.47655   0.16813   0.00598   0.00000  Uiso   1.00
C107   C     0.52355   0.16813   0.00601   0.00000  Uiso   1.00
C108   C     0.54662   0.18076   0.00642   0.00000  Uiso   1.00
C109   C     0.54698   0.15544   0.00655   0.00000  Uiso   1.00
C110   C     0.52364   0.14285   0.00657   0.00000  Uiso   1.00
C111   C     0.47646   0.14285   0.00655   0.00000  Uiso   1.00
C112   C     0.45311   0.15544   0.00650   0.00000  Uiso   1.00
C113   C     0.61980   0.24453   0.01863   0.00000  Uiso   1.00
C114   C     0.66622   0.24441   0.01196   0.00000  Uiso   1.00
C115   C     0.68860   0.23227   0.00011   0.00000  Uiso   1.00
C116   C     0.66556   0.21971  -0.00540   0.00000  Uiso   1.00
H37    H     0.61397   0.19803  -0.01478   0.00000  Uiso   1.00
H38    H     0.53387   0.24179   0.02633   0.00000  Uiso   1.00
H39    H     0.38615   0.19804  -0.01497   0.00000  Uiso   1.00
H40    H     0.46622   0.24178   0.02657   0.00000  Uiso   1.00
H41    H     0.41763   0.18007   0.01014   0.00000  Uiso   1.00
H42    H     0.58246   0.18007   0.01026   0.00000  Uiso   1.00
H43    H     0.58324   0.15527   0.00673   0.00000  Uiso   1.00
O19    O     0.54663   0.13022   0.00654   0.00000  Uiso   1.00
O20    O     0.45347   0.13022   0.00651   0.00000  Uiso   1.00
H44    H     0.41686   0.15527   0.00664   0.00000  Uiso   1.00
H45    H     0.60286   0.25426   0.02763   0.00000  Uiso   1.00
O21    O     0.69218   0.25624   0.01655   0.00000  Uiso   1.00
O22    O     0.73447   0.23332  -0.00578   0.00000  Uiso   1.00
H46    H     0.68397   0.21025  -0.01463   0.00000  Uiso   1.00
C117   C     0.38030   0.24452   0.01868   0.00000  Uiso   1.00
C118   C     0.33389   0.24441   0.01193   0.00000  Uiso   1.00
C119   C     0.31151   0.23228  -0.00005   0.00000  Uiso   1.00
C120   C     0.33456   0.21972  -0.00560   0.00000  Uiso   1.00
H47    H     0.39723   0.25425   0.02778   0.00000  Uiso   1.00
O23    O     0.30793   0.25625   0.01653   0.00000  Uiso   1.00
O24    O     0.26565   0.23333  -0.00602   0.00000  Uiso   1.00
H48    H     0.31615   0.21027  -0.01492   0.00000  Uiso   1.00
C121   C     0.00000   0.44697   0.94209   0.00000  Uiso   1.00
C122   C     0.00002   0.43422   0.97288   0.00000  Uiso   1.00
C123   C     0.00002   0.43414   0.03576   0.00000  Uiso   1.00
C124   C     0.00000   0.44682   0.06694   0.00000  Uiso   1.00
C125   C    -0.00002   0.45914   0.03450   0.00000  Uiso   1.00
C126   C    -0.00002   0.45920   0.97484   0.00000  Uiso   1.00
C127   C    -0.00003   0.47295   0.95788   0.00000  Uiso   1.00
N1     N    -0.00004   0.48166   0.00481   0.00000  Uiso   1.00
C128   C    -0.00003   0.47288   0.05168   0.00000  Uiso   1.00
N2     N    -0.00003   0.47687   0.10797   0.00000  Uiso   1.00
C129   C    -0.00004   0.49019   0.12501   0.00000  Uiso   1.00
N3     N    -0.00003   0.50132   0.08806   0.00000  Uiso   1.00
C130   C    -0.00002   0.51241   0.12500   0.00000  Uiso   1.00
C131   C    -0.00002   0.50835   0.18298   0.00000  Uiso   1.00
C132   C    -0.00003   0.49421   0.18304   0.00000  Uiso   1.00
N4     N    -0.00003   0.52109   0.00486   0.00000  Uiso   1.00
C133   C    -0.00001   0.52980   0.05179   0.00000  Uiso   1.00
N5     N    -0.00001   0.52574   0.10802   0.00000  Uiso   1.00
C134   C     0.00000   0.54355   0.03483   0.00000  Uiso   1.00
C135   C    -0.00002   0.54361   0.97517   0.00000  Uiso   1.00
C136   C    -0.00003   0.52988   0.95799   0.00000  Uiso   1.00
C137   C    -0.00002   0.48648   0.23495   0.00000  Uiso   1.00
C138   C    -0.00001   0.49382   0.28859   0.00000  Uiso   1.00
C139   C    -0.00000   0.50875   0.28844   0.00000  Uiso   1.00
C140   C    -0.00001   0.51608   0.23473   0.00000  Uiso   1.00
C141   C    -0.00002   0.55593   0.94274   0.00000  Uiso   1.00
C142   C     0.00000   0.56862   0.97393   0.00000  Uiso   1.00
C143   C     0.00002   0.56854   0.03681   0.00000  Uiso   1.00
C144   C     0.00002   0.55578   0.06759   0.00000  Uiso   1.00
N6     N    -0.00004   0.50143   0.92160   0.00000  Uiso   1.00
C145   C    -0.00004   0.51256   0.88466   0.00000  Uiso   1.00
N7     N    -0.00004   0.52588   0.90170   0.00000  Uiso   1.00
C146   C    -0.00003   0.50854   0.82662   0.00000  Uiso   1.00
C147   C    -0.00002   0.49440   0.82669   0.00000  Uiso   1.00
C148   C    -0.00003   0.49034   0.88467   0.00000  Uiso   1.00
C149   C     0.00000   0.48667   0.77494   0.00000  Uiso   1.00
C150   C     0.00001   0.49400   0.72123   0.00000  Uiso   1.00
C151   C     0.00000   0.50893   0.72108   0.00000  Uiso   1.00
C152   C    -0.00001   0.51627   0.77471   0.00000  Uiso   1.00
N8     N    -0.00003   0.47701   0.90165   0.00000  Uiso   1.00
H49    H     0.00001   0.44733   0.89451   0.00000  Uiso   1.00
H50    H     0.00001   0.44707   0.11451   0.00000  Uiso   1.00
H51    H    -0.00002   0.47521   0.23377   0.00000  Uiso   1.00
H52    H     0.00001   0.52735   0.23335   0.00000  Uiso   1.00
H53    H    -0.00005   0.55568   0.89516   0.00000  Uiso   1.00
H54    H     0.00004   0.55542   0.11516   0.00000  Uiso   1.00
H55    H     0.00002   0.47540   0.77632   0.00000  Uiso   1.00
H56    H    -0.00001   0.52754   0.77589   0.00000  Uiso   1.00
C153   C     0.00003   0.48679   0.66762   0.00000  Uiso   1.00
C154   C     0.00003   0.49428   0.61504   0.00000  Uiso   1.00
C155   C     0.00003   0.50858   0.61485   0.00000  Uiso   1.00
C156   C     0.00002   0.51611   0.66726   0.00000  Uiso   1.00
C157   C     0.00003   0.42158   0.94218   0.00000  Uiso   1.00
C158   C     0.00005   0.40898   0.97285   0.00000  Uiso   1.00
C159   C     0.00005   0.40889   0.03487   0.00000  Uiso   1.00
C160   C     0.00004   0.42141   0.06601   0.00000  Uiso   1.00
C161   C     0.00001   0.48664   0.34240   0.00000  Uiso   1.00
C162   C     0.00002   0.49417   0.39482   0.00000  Uiso   1.00
C163   C     0.00001   0.50847   0.39463   0.00000  Uiso   1.00
C164   C     0.00001   0.51596   0.34205   0.00000  Uiso   1.00
C165   C     0.00001   0.58135   0.94368   0.00000  Uiso   1.00
C166   C     0.00002   0.59386   0.97483   0.00000  Uiso   1.00
C167   C     0.00004   0.59377   0.03685   0.00000  Uiso   1.00
C168   C     0.00005   0.58117   0.06751   0.00000  Uiso   1.00
H57    H     0.00003   0.47552   0.66659   0.00000  Uiso   1.00
O25    O     0.00005   0.48793   0.56068   0.00000  Uiso   1.00
O26    O     0.00004   0.51488   0.56028   0.00000  Uiso   1.00
H58    H     0.00002   0.52738   0.66594   0.00000  Uiso   1.00
H59    H     0.00003   0.42147   0.89459   0.00000  Uiso   1.00
O27    O     0.00006   0.39638   0.94249   0.00000  Uiso   1.00
O28    O     0.00005   0.39620   0.06474   0.00000  Uiso   1.00
H60    H     0.00004   0.42117   0.11360   0.00000  Uiso   1.00
H61    H     0.00001   0.47537   0.34371   0.00000  Uiso   1.00
O29    O     0.00004   0.48787   0.44939   0.00000  Uiso   1.00
O30    O     0.00003   0.51482   0.44899   0.00000  Uiso   1.00
H62    H     0.00000   0.52723   0.34308   0.00000  Uiso   1.00
H63    H     0.00000   0.58159   0.89609   0.00000  Uiso   1.00
O31    O     0.00001   0.60655   0.94497   0.00000  Uiso   1.00
O32    O     0.00006   0.60637   0.06722   0.00000  Uiso   1.00
H64    H     0.00007   0.58128   0.11511   0.00000  Uiso   1.00
Ni1    Ni   -0.00003   0.50138   0.00483   0.00000  Uiso   1.00
C169   C     0.50008   0.05577   0.06754   0.00000  Uiso   1.00
C170   C     0.50008   0.06852   0.03675   0.00000  Uiso   1.00
C171   C     0.50009   0.06860   0.97387   0.00000  Uiso   1.00
C172   C     0.50010   0.05592   0.94269   0.00000  Uiso   1.00
C173   C     0.50010   0.04359   0.97512   0.00000  Uiso   1.00
C174   C     0.50009   0.04353   0.03478   0.00000  Uiso   1.00
C175   C     0.50009   0.02979   0.05174   0.00000  Uiso   1.00
N9     N     0.50010   0.02108   0.00480   0.00000  Uiso   1.00
C176   C     0.50011   0.02986   0.95793   0.00000  Uiso   1.00
N10    N     0.50011   0.02587   0.90164   0.00000  Uiso   1.00
C177   C     0.50011   0.01255   0.88460   0.00000  Uiso   1.00
N11    N     0.50011   0.00142   0.92154   0.00000  Uiso   1.00
C178   C     0.50010   0.99033   0.88460   0.00000  Uiso   1.00
C179   C     0.50008   0.99439   0.82662   0.00000  Uiso   1.00
C180   C     0.50009   0.00853   0.82656   0.00000  Uiso   1.00
N12    N     0.50011   0.98165   0.00474   0.00000  Uiso   1.00
C181   C     0.50012   0.97294   0.95781   0.00000  Uiso   1.00
N13    N     0.50011   0.97700   0.90158   0.00000  Uiso   1.00
C182   C     0.50011   0.95919   0.97476   0.00000  Uiso   1.00
C183   C     0.50010   0.95913   0.03443   0.00000  Uiso   1.00
C184   C     0.50010   0.97287   0.05161   0.00000  Uiso   1.00
C185   C     0.50008   0.01626   0.77464   0.00000  Uiso   1.00
C186   C     0.50005   0.00892   0.72101   0.00000  Uiso   1.00
C187   C     0.50003   0.99399   0.72116   0.00000  Uiso   1.00
C188   C     0.50005   0.98666   0.77488   0.00000  Uiso   1.00
C189   C     0.50007   0.94681   0.06685   0.00000  Uiso   1.00
C190   C     0.50007   0.93412   0.03565   0.00000  Uiso   1.00
C191   C     0.50009   0.93421   0.97277   0.00000  Uiso   1.00
C192   C     0.50010   0.94696   0.94200   0.00000  Uiso   1.00
N14    N     0.50011   0.00131   0.08800   0.00000  Uiso   1.00
C193   C     0.50010   0.99018   0.12494   0.00000  Uiso   1.00
N15    N     0.50010   0.97686   0.10790   0.00000  Uiso   1.00
C194   C     0.50009   0.99420   0.18298   0.00000  Uiso   1.00
C195   C     0.50008   0.00833   0.18292   0.00000  Uiso   1.00
C196   C     0.50009   0.01239   0.12494   0.00000  Uiso   1.00
C197   C     0.50006   0.01606   0.23467   0.00000  Uiso   1.00
C198   C     0.50005   0.00873   0.28838   0.00000  Uiso   1.00
C199   C     0.50006   0.99381   0.28852   0.00000  Uiso   1.00
C200   C     0.50009   0.98647   0.23489   0.00000  Uiso   1.00
N16    N     0.50009   0.02573   0.10797   0.00000  Uiso   1.00
H65    H     0.50007   0.05540   0.11511   0.00000  Uiso   1.00
H66    H     0.50011   0.05567   0.89511   0.00000  Uiso   1.00
H67    H     0.50010   0.02753   0.77582   0.00000  Uiso   1.00
H68    H     0.50003   0.97540   0.77626   0.00000  Uiso   1.00
H69    H     0.50005   0.94706   0.11442   0.00000  Uiso   1.00
H70    H     0.50011   0.94733   0.89443   0.00000  Uiso   1.00
H71    H     0.50005   0.02733   0.23329   0.00000  Uiso   1.00
H72    H     0.50010   0.97520   0.23370   0.00000  Uiso   1.00
C201   C     0.50002   0.01595   0.34198   0.00000  Uiso   1.00
C202   C     0.50002   0.00845   0.39456   0.00000  Uiso   1.00
C203   C     0.50002   0.99416   0.39475   0.00000  Uiso   1.00
C204   C     0.50005   0.98663   0.34234   0.00000  Uiso   1.00
C205   C     0.50007   0.08116   0.06745   0.00000  Uiso   1.00
C206   C     0.50006   0.09376   0.03678   0.00000  Uiso   1.00
C207   C     0.50007   0.09384   0.97476   0.00000  Uiso   1.00
C208   C     0.50008   0.08133   0.94362   0.00000  Uiso   1.00
C209   C     0.50004   0.01610   0.66719   0.00000  Uiso   1.00
C210   C     0.50001   0.00857   0.61478   0.00000  Uiso   1.00
C211   C     0.50000   0.99427   0.61498   0.00000  Uiso   1.00
C212   C     0.50000   0.98678   0.66756   0.00000  Uiso   1.00
C213   C     0.50005   0.92139   0.06589   0.00000  Uiso   1.00
C214   C     0.50004   0.90888   0.03472   0.00000  Uiso   1.00
C215   C     0.50006   0.90898   0.97270   0.00000  Uiso   1.00
C216   C     0.50009   0.92157   0.94206   0.00000  Uiso   1.00
H73    H     0.50002   0.02722   0.34302   0.00000  Uiso   1.00
O33    O     0.50000   0.01481   0.44892   0.00000  Uiso   1.00
O34    O     0.50001   0.98786   0.44932   0.00000  Uiso   1.00
H74    H     0.50006   0.97536   0.34365   0.00000  Uiso   1.00
H75    H     0.50006   0.08126   0.11505   0.00000  Uiso   1.00
O35    O     0.50005   0.10635   0.06715   0.00000  Uiso   1.00
O36    O     0.50007   0.10653   0.94490   0.00000  Uiso   1.00
H76    H     0.50008   0.08157   0.89603   0.00000  Uiso   1.00
H77    H     0.50006   0.02736   0.66587   0.00000  Uiso   1.00
O37    O     0.50000   0.01487   0.56021   0.00000  Uiso   1.00
O38    O     0.49998   0.98791   0.56062   0.00000  Uiso   1.00
H78    H     0.49999   0.97551   0.66653   0.00000  Uiso   1.00
H79    H     0.50004   0.92115   0.11347   0.00000  Uiso   1.00
O39    O     0.50003   0.89619   0.06456   0.00000  Uiso   1.00
O40    O     0.50006   0.89638   0.94232   0.00000  Uiso   1.00
H80    H     0.50010   0.92147   0.89446   0.00000  Uiso   1.00
Ni2    Ni    0.50010   0.00136   0.00477   0.00000  Uiso   1.00
Zn1    Zn    0.00005   0.38441   0.00337   0.00000  Uiso   1.00
Zn2    Zn    0.00004   0.61835   0.00635   0.00000  Uiso   1.00
Zn3    Zn    0.50004   0.88440   0.00316   0.00000  Uiso   1.00
Zn4    Zn    0.50006   0.11833   0.00628   0.00000  Uiso   1.00
Cu1    Cu    0.25006   0.25137   0.00475   0.00000  Uiso   1.00
Cu2    Cu    0.75005   0.75136   0.00504   0.00000  Uiso   1.00
Cu3    Cu    0.25005   0.75137   0.00487   0.00000  Uiso   1.00
Cu4    Cu    0.75006   0.25137   0.00489   0.00000  Uiso   1.00
Cu5    Cu    0.00003   0.50137   0.50483   0.00000  Uiso   1.00
Cu6    Cu    0.49999   0.00136   0.50477   0.00000  Uiso   1.00
loop_
_geom_bond_atom_site_label_1
_geom_bond_atom_site_label_2
_geom_bond_distance
_geom_bond_site_symmetry_2
_ccdc_geom_bond_type
C1     C2      1.427   .     A
C1     C6      1.427   .     A
C1     C11     1.421   .     A
C2     C3      1.430   1_655 A
C2     C14     1.423   .     A
C3     C2      1.430   1_455 A
C3     C4      1.427   .     A
C3     C10     1.423   .     A
C4     C5      1.427   .     A
C4     C7      1.421   .     A
C5     C6      1.425   1_455 A
C5     C18     1.422   .     A
C6     C5      1.425   1_655 A
C6     C15     1.422   .     A
C7     C8      1.395   .     A
C7     H1      1.077   .     S
C8     C9      1.407   .     A
C8     C26     1.409   .     A
C9     C10     1.396   .     A
C9     C23     1.409   .     A
C10    H2      1.074   .     S
C11    C12     1.395   .     A
C11    H3      1.077   .     S
C12    C13     1.407   .     A
C12    C30     1.409   .     A
C13    C14     1.396   .     A
C13    C27     1.409   .     A
C14    H4      1.074   .     S
C15    C16     1.397   .     A
C15    H5      1.077   .     S
C16    C17     1.405   1_655 A
C16    C22     1.407   .     A
C17    C16     1.405   1_455 A
C17    C18     1.397   .     A
C17    C19     1.407   .     A
C18    H6      1.077   .     S
C19    C20     1.396   .     A
C19    H7      1.084   .     S
C20    C21     1.410   1_455 A
C20    O1      1.395   .     S
C21    C20     1.410   1_655 A
C21    C22     1.396   .     A
C21    O2      1.395   .     S
C22    H8      1.084   .     S
C23    C24     1.396   .     A
C23    H9      1.084   .     S
C24    C25     1.372   .     A
C24    O3      1.381   .     S
C25    C26     1.396   .     A
C25    O4      1.381   .     S
C26    H10     1.084   .     S
O1     Zn1     1.801   .     S
O2     Zn1     1.801   1_655 S
O3     Cu1     1.812   .     S
O4     Cu1     1.813   .     S
C27    C28     1.396   .     A
C27    H11     1.084   .     S
C28    C29     1.372   .     A
C28    O5      1.381   .     S
C29    C30     1.396   .     A
C29    O6      1.381   .     S
C30    H12     1.084   .     S
O5     Cu4     1.812   .     S
O6     Cu4     1.813   .     S
C31    C32     1.427   .     A
C31    C36     1.426   .     A
C31    C41     1.421   .     A
C32    C33     1.430   1_655 A
C32    C44     1.423   .     A
C33    C32     1.430   1_455 A
C33    C34     1.427   .     A
C33    C40     1.423   .     A
C34    C35     1.427   .     A
C34    C37     1.421   .     A
C35    C36     1.425   1_455 A
C35    C48     1.422   .     A
C36    C35     1.425   1_655 A
C36    C45     1.422   .     A
C37    C38     1.395   .     A
C37    H13     1.077   .     S
C38    C39     1.407   .     A
C38    C56     1.409   .     A
C39    C40     1.396   .     A
C39    C53     1.409   .     A
C40    H14     1.074   .     S
C41    C42     1.395   .     A
C41    H15     1.077   .     S
C42    C43     1.407   .     A
C42    C60     1.409   .     A
C43    C44     1.396   .     A
C43    C57     1.409   .     A
C44    H16     1.074   .     S
C45    C46     1.397   .     A
C45    H17     1.077   .     S
C46    C47     1.405   1_655 A
C46    C52     1.407   .     A
C47    C46     1.405   1_455 A
C47    C48     1.397   .     A
C47    C49     1.407   .     A
C48    H18     1.077   .     S
C49    C50     1.396   .     A
C49    H19     1.084   .     S
C50    C51     1.410   1_455 A
C50    O7      1.395   .     S
C51    C50     1.410   1_655 A
C51    C52     1.396   .     A
C51    O8      1.395   .     S
C52    H20     1.084   .     S
C53    C54     1.396   .     A
C53    H21     1.084   .     S
C54    C55     1.372   .     A
C54    O9      1.381   .     S
C55    C56     1.396   .     A
C55    O10     1.381   .     S
C56    H22     1.084   .     S
O7     Zn2     1.801   .     S
O8     Zn2     1.801   1_655 S
O9     Cu3     1.812   .     S
O10    Cu3     1.813   .     S
C57    C58     1.396   .     A
C57    H23     1.084   .     S
C58    C59     1.372   .     A
C58    O11     1.381   .     S
C59    C60     1.396   .     A
C59    O12     1.381   .     S
C60    H24     1.084   .     S
O11    Cu2     1.812   .     S
O12    Cu2     1.813   .     S
C61    C62     1.427   .     A
C61    C66     1.426   .     A
C61    C71     1.421   .     A
C62    C63     1.430   .     A
C62    C74     1.423   .     A
C63    C64     1.427   .     A
C63    C70     1.423   .     A
C64    C65     1.427   .     A
C64    C67     1.421   .     A
C65    C66     1.425   .     A
C65    C78     1.422   .     A
C66    C75     1.422   .     A
C67    C68     1.395   .     A
C67    H25     1.077   .     S
C68    C69     1.407   .     A
C68    C86     1.409   .     A
C69    C70     1.396   .     A
C69    C83     1.409   .     A
C70    H26     1.074   .     S
C71    C72     1.395   .     A
C71    H27     1.077   .     S
C72    C73     1.407   .     A
C72    C90     1.409   .     A
C73    C74     1.396   .     A
C73    C87     1.409   .     A
C74    H28     1.074   .     S
C75    C76     1.397   .     A
C75    H29     1.077   .     S
C76    C77     1.405   .     A
C76    C82     1.407   .     A
C77    C78     1.397   .     A
C77    C79     1.407   .     A
C78    H30     1.077   .     S
C79    C80     1.396   .     A
C79    H31     1.084   .     S
C80    C81     1.410   .     A
C80    O13     1.395   .     S
C81    C82     1.396   .     A
C81    O14     1.395   .     S
C82    H32     1.084   .     S
C83    C84     1.396   .     A
C83    H33     1.084   .     S
C84    C85     1.372   .     A
C84    O15     1.381   .     S
C85    C86     1.396   .     A
C85    O16     1.381   .     S
C86    H34     1.084   .     S
O13    Zn3     1.801   .     S
O14    Zn3     1.801   .     S
O15    Cu2     1.812   .     S
O16    Cu2     1.813   .     S
C87    C88     1.396   .     A
C87    H35     1.084   .     S
C88    C89     1.372   .     A
C88    O17     1.381   .     S
C89    C90     1.396   .     A
C89    O18     1.381   .     S
C90    H36     1.084   .     S
O17    Cu3     1.812   .     S
O18    Cu3     1.813   .     S
C91    C92     1.427   .     A
C91    C96     1.427   .     A
C91    C101    1.421   .     A
C92    C93     1.430   .     A
C92    C104    1.423   .     A
C93    C94     1.427   .     A
C93    C100    1.423   .     A
C94    C95     1.427   .     A
C94    C97     1.421   .     A
C95    C96     1.425   .     A
C95    C108    1.422   .     A
C96    C105    1.422   .     A
C97    C98     1.395   .     A
C97    H37     1.077   .     S
C98    C99     1.407   .     A
C98    C116    1.409   .     A
C99    C100    1.396   .     A
C99    C113    1.409   .     A
C100   H38     1.074   .     S
C101   C102    1.395   .     A
C101   H39     1.077   .     S
C102   C103    1.407   .     A
C102   C120    1.409   .     A
C103   C104    1.396   .     A
C103   C117    1.409   .     A
C104   H40     1.074   .     S
C105   C106    1.397   .     A
C105   H41     1.077   .     S
C106   C107    1.405   .     A
C106   C112    1.407   .     A
C107   C108    1.397   .     A
C107   C109    1.407   .     A
C108   H42     1.077   .     S
C109   C110    1.396   .     A
C109   H43     1.084   .     S
C110   C111    1.410   .     A
C110   O19     1.395   .     S
C111   C112    1.396   .     A
C111   O20     1.395   .     S
C112   H44     1.084   .     S
C113   C114    1.396   .     A
C113   H45     1.084   .     S
C114   C115    1.372   .     A
C114   O21     1.381   .     S
C115   C116    1.396   .     A
C115   O22     1.381   .     S
C116   H46     1.084   .     S
O19    Zn4     1.801   .     S
O20    Zn4     1.801   .     S
O21    Cu4     1.812   .     S
O22    Cu4     1.813   .     S
C117   C118    1.396   .     A
C117   H47     1.084   .     S
C118   C119    1.372   .     A
C118   O23     1.381   .     S
C119   C120    1.396   .     A
C119   O24     1.381   .     S
C120   H48     1.084   .     S
O23    Cu1     1.812   .     S
O24    Cu1     1.813   .     S
C121   C122    1.411   .     A
C121   C126    1.394   .     A
C121   H49     1.084   .     S
C122   C123    1.432   1_556 A
C122   C157    1.403   .     A
C123   C122    1.432   1_554 A
C123   C124    1.412   .     A
C123   C160    1.403   .     A
C124   C125    1.395   .     A
C124   H50     1.084   .     S
C125   C126    1.358   1_554 A
C125   C128    1.377   .     A
C126   C125    1.358   1_556 A
C126   C127    1.376   .     A
C127   N1      1.359   1_556 A
C127   N8      1.338   .     A
N1     C127    1.359   1_554 A
N1     C128    1.360   .     A
N1     Ni1     1.895   .     S
C128   N2      1.339   .     A
N2     C129    1.339   .     A
C129   N3      1.360   .     A
C129   C132    1.378   .     A
N3     C130    1.359   .     A
N3     Ni1     1.895   .     S
C130   C131    1.376   .     A
C130   N5      1.338   .     A
C131   C132    1.359   .     A
C131   C140    1.394   .     A
C132   C137    1.395   .     A
N4     C133    1.359   .     A
N4     C136    1.360   1_554 A
N4     Ni1     1.895   .     S
C133   N5      1.338   .     A
C133   C134    1.376   .     A
C134   C135    1.358   1_554 A
C134   C144    1.394   .     A
C135   C134    1.358   1_556 A
C135   C136    1.378   .     A
C135   C141    1.395   .     A
C136   N4      1.360   1_556 A
C136   N7      1.339   .     A
C137   C138    1.412   .     A
C137   H51     1.084   .     S
C138   C139    1.435   .     A
C138   C161    1.405   .     A
C139   C140    1.410   .     A
C139   C164    1.405   .     A
C140   H52     1.084   .     S
C141   C142    1.412   .     A
C141   H53     1.084   .     S
C142   C143    1.432   1_556 A
C142   C165    1.403   .     A
C143   C142    1.432   1_554 A
C143   C144    1.411   .     A
C143   C168    1.403   .     A
C144   H54     1.084   .     S
N6     C145    1.360   .     A
N6     C148    1.359   .     A
N6     Ni1     1.895   1_556 S
C145   N7      1.339   .     A
C145   C146    1.378   .     A
C146   C147    1.359   .     A
C146   C152    1.395   .     A
C147   C148    1.376   .     A
C147   C149    1.394   .     A
C148   N8      1.338   .     A
C149   C150    1.410   .     A
C149   H55     1.084   .     S
C150   C151    1.435   .     A
C150   C153    1.405   .     A
C151   C152    1.412   .     A
C151   C156    1.405   .     A
C152   H56     1.084   .     S
C153   C154    1.396   .     A
C153   H57     1.083   .     S
C154   C155    1.374   .     A
C154   O25     1.381   .     S
C155   C156    1.397   .     A
C155   O26     1.381   .     S
C156   H58     1.083   .     S
C157   C158    1.397   .     A
C157   H59     1.084   .     S
C158   C159    1.412   1_556 A
C158   O27     1.395   .     S
C159   C158    1.412   1_554 A
C159   C160    1.397   .     A
C159   O28     1.396   .     S
C160   H60     1.084   .     S
C161   C162    1.397   .     A
C161   H61     1.083   .     S
C162   C163    1.374   .     A
C162   O29     1.381   .     S
C163   C164    1.396   .     A
C163   O30     1.381   .     S
C164   H62     1.083   .     S
C165   C166    1.397   .     A
C165   H63     1.084   .     S
C166   C167    1.412   1_556 A
C166   O31     1.396   .     S
C167   C166    1.412   1_554 A
C167   C168    1.397   .     A
C167   O32     1.395   .     S
C168   H64     1.084   .     S
O25    Cu5     1.812   .     S
O26    Cu5     1.812   .     S
O27    Zn1     1.800   1_556 S
O28    Zn1     1.801   .     S
O29    Cu5     1.812   .     S
O30    Cu5     1.812   .     S
O31    Zn2     1.801   1_556 S
O32    Zn2     1.800   .     S
Ni1    N6      1.895   1_554 S
C169   C170    1.411   .     A
C169   C174    1.394   .     A
C169   H65     1.084   .     S
C170   C171    1.432   1_554 A
C170   C205    1.403   .     A
C171   C170    1.432   1_556 A
C171   C172    1.412   .     A
C171   C208    1.403   .     A
C172   C173    1.395   .     A
C172   H66     1.084   .     S
C173   C174    1.358   1_556 A
C173   C176    1.377   .     A
C174   C173    1.358   1_554 A
C174   C175    1.376   .     A
C175   N9      1.359   .     A
C175   N16     1.338   .     A
N9     C176    1.360   1_554 A
N9     Ni2     1.895   .     S
C176   N9      1.360   1_556 A
C176   N10     1.339   .     A
N10    C177    1.339   .     A
C177   N11     1.360   .     A
C177   C180    1.378   .     A
N11    C178    1.359   1_545 A
N11    Ni2     1.895   1_556 S
C178   N11     1.359   1_565 A
C178   C179    1.376   .     A
C178   N13     1.338   .     A
C179   C180    1.359   1_565 A
C179   C188    1.394   .     A
C180   C179    1.359   1_545 A
C180   C185    1.395   .     A
N12    C181    1.359   1_554 A
N12    C184    1.360   .     A
N12    Ni2     1.895   1_565 S
C181   N12     1.359   1_556 A
C181   N13     1.338   .     A
C181   C182    1.376   .     A
C182   C183    1.358   1_556 A
C182   C192    1.394   .     A
C183   C182    1.358   1_554 A
C183   C184    1.377   .     A
C183   C189    1.395   .     A
C184   N15     1.339   .     A
C185   C186    1.412   .     A
C185   H67     1.084   .     S
C186   C187    1.435   1_545 A
C186   C209    1.405   .     A
C187   C186    1.435   1_565 A
C187   C188    1.410   .     A
C187   C212    1.405   .     A
C188   H68     1.084   .     S
C189   C190    1.412   .     A
C189   H69     1.084   .     S
C190   C191    1.432   1_554 A
C190   C213    1.403   .     A
C191   C190    1.432   1_556 A
C191   C192    1.411   .     A
C191   C216    1.403   .     A
C192   H70     1.084   .     S
N14    C193    1.360   1_545 A
N14    C196    1.359   .     A
N14    Ni2     1.895   .     S
C193   N14     1.360   1_565 A
C193   N15     1.339   .     A
C193   C194    1.378   .     A
C194   C195    1.359   1_565 A
C194   C200    1.395   .     A
C195   C194    1.359   1_545 A
C195   C196    1.376   .     A
C195   C197    1.394   .     A
C196   N16     1.338   .     A
C197   C198    1.410   .     A
C197   H71     1.084   .     S
C198   C199    1.435   1_545 A
C198   C201    1.405   .     A
C199   C198    1.435   1_565 A
C199   C200    1.412   .     A
C199   C204    1.405   .     A
C200   H72     1.084   .     S
C201   C202    1.396   .     A
C201   H73     1.083   .     S
C202   C203    1.374   1_545 A
C202   O33     1.381   .     S
C203   C202    1.374   1_565 A
C203   C204    1.397   .     A
C203   O34     1.381   .     S
C204   H74     1.083   .     S
C205   C206    1.397   .     A
C205   H75     1.084   .     S
C206   C207    1.412   1_554 A
C206   O35     1.396   .     S
C207   C206    1.412   1_556 A
C207   C208    1.397   .     A
C207   O36     1.396   .     S
C208   H76     1.084   .     S
C209   C210    1.397   .     A
C209   H77     1.083   .     S
C210   C211    1.374   1_545 A
C210   O37     1.381   .     S
C211   C210    1.374   1_565 A
C211   C212    1.396   .     A
C211   O38     1.381   .     S
C212   H78     1.083   .     S
C213   C214    1.397   .     A
C213   H79     1.084   .     S
C214   C215    1.412   1_554 A
C214   O39     1.396   .     S
C215   C214    1.412   1_556 A
C215   C216    1.397   .     A
C215   O40     1.395   .     S
C216   H80     1.084   .     S
O33    Cu6     1.812   .     S
O34    Cu6     1.812   1_565 S
O35    Zn4     1.800   .     S
O36    Zn4     1.801   1_556 S
O37    Cu6     1.812   .     S
O38    Cu6     1.812   1_565 S
O39    Zn3     1.801   .     S
O40    Zn3     1.800   1_556 S
Ni2    N12     1.895   1_545 S
Ni2    N11     1.895   1_554 S
Zn1    O2      1.801   1_455 S
Zn1    O27     1.800   1_554 S
Zn2    O31     1.801   1_554 S
Zn2    O8      1.801   1_455 S
Zn3    O40     1.800   1_554 S
Zn4    O36     1.801   1_554 S
Cu6    O34     1.812   1_545 S
Cu6    O38     1.812   1_545 S
