data_tfe-TN_O-PcM_O-Zntet
_audit_creation_date              2021-11-06
_audit_creation_method            'Materials Studio'
_symmetry_space_group_name_H-M    'P1'
_symmetry_Int_Tables_number       1
_symmetry_cell_setting            triclinic
loop_
_symmetry_equiv_pos_as_xyz
  x,y,z
_cell_length_a                    65.9102
_cell_length_b                    65.8956
_cell_length_c                    65.9336
_cell_angle_alpha                 90.0391
_cell_angle_beta                  90.0424
_cell_angle_gamma                 89.9678
loop_
_atom_site_label
_atom_site_type_symbol
_atom_site_fract_x
_atom_site_fract_y
_atom_site_fract_z
_atom_site_U_iso_or_equiv
_atom_site_adp_type
_atom_site_occupancy
C1     C     0.26658   0.28182   0.29738   0.00000  Uiso   1.00
C2     C     0.28054   0.26527   0.29609   0.00000  Uiso   1.00
C3     C     0.29575   0.26515   0.28062   0.00000  Uiso   1.00
C4     C     0.29666   0.28141   0.26638   0.00000  Uiso   1.00
C5     C     0.28126   0.29661   0.26627   0.00000  Uiso   1.00
C6     C     0.26654   0.29719   0.28209   0.00000  Uiso   1.00
C7     C     0.31340   0.28233   0.25285   0.00000  Uiso   1.00
C8     C     0.32810   0.26710   0.25219   0.00000  Uiso   1.00
C9     C     0.32657   0.25043   0.26534   0.00000  Uiso   1.00
C10    C     0.31064   0.24955   0.27930   0.00000  Uiso   1.00
C11    C     0.25295   0.28248   0.31409   0.00000  Uiso   1.00
C12    C     0.25230   0.26712   0.32862   0.00000  Uiso   1.00
C13    C     0.26546   0.25046   0.32694   0.00000  Uiso   1.00
C14    C     0.27926   0.24959   0.31089   0.00000  Uiso   1.00
C15    C     0.25195   0.31311   0.28191   0.00000  Uiso   1.00
C16    C     0.25182   0.32803   0.26687   0.00000  Uiso   1.00
C17    C     0.26581   0.32694   0.25087   0.00000  Uiso   1.00
C18    C     0.27998   0.31119   0.25044   0.00000  Uiso   1.00
C19    C     0.26548   0.34169   0.23545   0.00000  Uiso   1.00
C20    C     0.25153   0.35763   0.23626   0.00000  Uiso   1.00
C21    C     0.23760   0.35883   0.25244   0.00000  Uiso   1.00
C22    C     0.23765   0.34400   0.26755   0.00000  Uiso   1.00
C23    C     0.34136   0.23502   0.26474   0.00000  Uiso   1.00
C24    C     0.35762   0.23640   0.25124   0.00000  Uiso   1.00
C25    C     0.35918   0.25319   0.23810   0.00000  Uiso   1.00
C26    C     0.34446   0.26842   0.23857   0.00000  Uiso   1.00
H1     H     0.31594   0.29519   0.24309   0.00000  Uiso   1.00
H2     H     0.31064   0.23652   0.28907   0.00000  Uiso   1.00
H3     H     0.24278   0.29498   0.31664   0.00000  Uiso   1.00
H4     H     0.28885   0.23641   0.31061   0.00000  Uiso   1.00
H5     H     0.24015   0.31438   0.29308   0.00000  Uiso   1.00
H6     H     0.28950   0.31045   0.23718   0.00000  Uiso   1.00
H7     H     0.27616   0.34101   0.22298   0.00000  Uiso   1.00
O1     O     0.25142   0.37262   0.22132   0.00000  Uiso   1.00
O2     O     0.22398   0.37502   0.25332   0.00000  Uiso   1.00
H8     H     0.22680   0.34508   0.27984   0.00000  Uiso   1.00
H9     H     0.34043   0.22209   0.27484   0.00000  Uiso   1.00
O3     O     0.37254   0.22137   0.25079   0.00000  Uiso   1.00
O4     O     0.37560   0.25453   0.22482   0.00000  Uiso   1.00
H10    H     0.34586   0.28124   0.22838   0.00000  Uiso   1.00
C27    C     0.26491   0.23497   0.34163   0.00000  Uiso   1.00
C28    C     0.25139   0.23621   0.35788   0.00000  Uiso   1.00
C29    C     0.23814   0.25293   0.35951   0.00000  Uiso   1.00
C30    C     0.23859   0.26826   0.34493   0.00000  Uiso   1.00
H11    H     0.27506   0.22206   0.34061   0.00000  Uiso   1.00
O5     O     0.25099   0.22112   0.37272   0.00000  Uiso   1.00
O6     O     0.22477   0.25411   0.37587   0.00000  Uiso   1.00
H12    H     0.22833   0.28103   0.34641   0.00000  Uiso   1.00
C31    C     0.73384   0.29719   0.28174   0.00000  Uiso   1.00
C32    C     0.71937   0.29632   0.26560   0.00000  Uiso   1.00
C33    C     0.70437   0.28064   0.26535   0.00000  Uiso   1.00
C34    C     0.70366   0.26622   0.28144   0.00000  Uiso   1.00
C35    C     0.71905   0.26616   0.29663   0.00000  Uiso   1.00
C36    C     0.73353   0.28219   0.29740   0.00000  Uiso   1.00
C37    C     0.68704   0.25253   0.28230   0.00000  Uiso   1.00
C38    C     0.67232   0.25187   0.26709   0.00000  Uiso   1.00
C39    C     0.67384   0.26501   0.25041   0.00000  Uiso   1.00
C40    C     0.68972   0.27904   0.24957   0.00000  Uiso   1.00
C41    C     0.74849   0.31304   0.28155   0.00000  Uiso   1.00
C42    C     0.74862   0.32800   0.26659   0.00000  Uiso   1.00
C43    C     0.73426   0.32731   0.25088   0.00000  Uiso   1.00
C44    C     0.71996   0.31169   0.25045   0.00000  Uiso   1.00
C45    C     0.74725   0.28275   0.31406   0.00000  Uiso   1.00
C46    C     0.74767   0.26747   0.32873   0.00000  Uiso   1.00
C47    C     0.73440   0.25090   0.32705   0.00000  Uiso   1.00
C48    C     0.72052   0.25022   0.31106   0.00000  Uiso   1.00
C49    C     0.73501   0.23528   0.34157   0.00000  Uiso   1.00
C50    C     0.74858   0.23638   0.35781   0.00000  Uiso   1.00
C51    C     0.76184   0.25307   0.35955   0.00000  Uiso   1.00
C52    C     0.76142   0.26847   0.34503   0.00000  Uiso   1.00
C53    C     0.65911   0.26432   0.23497   0.00000  Uiso   1.00
C54    C     0.64284   0.25082   0.23636   0.00000  Uiso   1.00
C55    C     0.64127   0.23771   0.25318   0.00000  Uiso   1.00
C56    C     0.65598   0.23821   0.26841   0.00000  Uiso   1.00
H13    H     0.68461   0.24269   0.29511   0.00000  Uiso   1.00
H14    H     0.69005   0.28847   0.23628   0.00000  Uiso   1.00
H15    H     0.76026   0.31428   0.29277   0.00000  Uiso   1.00
H16    H     0.70925   0.31234   0.23818   0.00000  Uiso   1.00
H17    H     0.75776   0.29499   0.31641   0.00000  Uiso   1.00
H18    H     0.71136   0.23672   0.30999   0.00000  Uiso   1.00
H19    H     0.72483   0.22241   0.34048   0.00000  Uiso   1.00
O7     O     0.74899   0.22119   0.37255   0.00000  Uiso   1.00
O8     O     0.77521   0.25414   0.37593   0.00000  Uiso   1.00
H20    H     0.77176   0.28117   0.34653   0.00000  Uiso   1.00
H21    H     0.66004   0.27441   0.22203   0.00000  Uiso   1.00
O9     O     0.62791   0.25038   0.22135   0.00000  Uiso   1.00
O10    O     0.62483   0.22444   0.25453   0.00000  Uiso   1.00
H22    H     0.65458   0.22802   0.28123   0.00000  Uiso   1.00
C57    C     0.73432   0.34240   0.23578   0.00000  Uiso   1.00
C58    C     0.74849   0.35813   0.23651   0.00000  Uiso   1.00
C59    C     0.76281   0.35890   0.25240   0.00000  Uiso   1.00
C60    C     0.76293   0.34382   0.26725   0.00000  Uiso   1.00
H23    H     0.72335   0.34206   0.22353   0.00000  Uiso   1.00
O11    O     0.74850   0.37330   0.22175   0.00000  Uiso   1.00
O12    O     0.77663   0.37490   0.25325   0.00000  Uiso   1.00
H24    H     0.77403   0.34462   0.27937   0.00000  Uiso   1.00
C61    C     0.70342   0.73403   0.28159   0.00000  Uiso   1.00
C62    C     0.70372   0.71913   0.26592   0.00000  Uiso   1.00
C63    C     0.71862   0.70343   0.26624   0.00000  Uiso   1.00
C64    C     0.73433   0.70376   0.28110   0.00000  Uiso   1.00
C65    C     0.73401   0.71867   0.29679   0.00000  Uiso   1.00
C66    C     0.71913   0.73436   0.29648   0.00000  Uiso   1.00
C67    C     0.75017   0.68920   0.27963   0.00000  Uiso   1.00
C68    C     0.74953   0.67345   0.26547   0.00000  Uiso   1.00
C69    C     0.73303   0.67203   0.25204   0.00000  Uiso   1.00
C70    C     0.71790   0.68687   0.25244   0.00000  Uiso   1.00
C71    C     0.68688   0.74785   0.28229   0.00000  Uiso   1.00
C72    C     0.67202   0.74823   0.26718   0.00000  Uiso   1.00
C73    C     0.67340   0.73474   0.25073   0.00000  Uiso   1.00
C74    C     0.68914   0.72056   0.25010   0.00000  Uiso   1.00
C75    C     0.72059   0.75019   0.31104   0.00000  Uiso   1.00
C76    C     0.73477   0.74957   0.32678   0.00000  Uiso   1.00
C77    C     0.74824   0.73309   0.32817   0.00000  Uiso   1.00
C78    C     0.74783   0.71796   0.31333   0.00000  Uiso   1.00
C79    C     0.76205   0.73199   0.34439   0.00000  Uiso   1.00
C80    C     0.76245   0.74726   0.35908   0.00000  Uiso   1.00
C81    C     0.74910   0.76392   0.35756   0.00000  Uiso   1.00
C82    C     0.73539   0.76507   0.34144   0.00000  Uiso   1.00
C83    C     0.73191   0.65577   0.23825   0.00000  Uiso   1.00
C84    C     0.74719   0.64110   0.23785   0.00000  Uiso   1.00
C85    C     0.76389   0.64266   0.25115   0.00000  Uiso   1.00
C86    C     0.76505   0.65880   0.26483   0.00000  Uiso   1.00
H25    H     0.76348   0.68989   0.28909   0.00000  Uiso   1.00
H26    H     0.70536   0.68466   0.24219   0.00000  Uiso   1.00
H27    H     0.68471   0.75815   0.29479   0.00000  Uiso   1.00
H28    H     0.68981   0.71108   0.23681   0.00000  Uiso   1.00
H29    H     0.71111   0.76350   0.31037   0.00000  Uiso   1.00
H30    H     0.75811   0.70543   0.31551   0.00000  Uiso   1.00
H31    H     0.77245   0.71931   0.34572   0.00000  Uiso   1.00
O13    O     0.77586   0.74610   0.37542   0.00000  Uiso   1.00
O14    O     0.74951   0.77901   0.37241   0.00000  Uiso   1.00
H32    H     0.72510   0.77788   0.34056   0.00000  Uiso   1.00
H33    H     0.71922   0.65443   0.22787   0.00000  Uiso   1.00
O15    O     0.74601   0.62473   0.22447   0.00000  Uiso   1.00
O16    O     0.77900   0.62783   0.25071   0.00000  Uiso   1.00
H34    H     0.77788   0.65971   0.27508   0.00000  Uiso   1.00
C87    C     0.65871   0.73532   0.23525   0.00000  Uiso   1.00
C88    C     0.64258   0.74902   0.23640   0.00000  Uiso   1.00
C89    C     0.64108   0.76241   0.25303   0.00000  Uiso   1.00
C90    C     0.65579   0.76204   0.26828   0.00000  Uiso   1.00
H35    H     0.65958   0.72501   0.22246   0.00000  Uiso   1.00
O17    O     0.62771   0.74941   0.22133   0.00000  Uiso   1.00
O18    O     0.62474   0.77583   0.25418   0.00000  Uiso   1.00
H36    H     0.65448   0.77247   0.28093   0.00000  Uiso   1.00
C91    C     0.29747   0.71828   0.26668   0.00000  Uiso   1.00
C92    C     0.29607   0.73494   0.28048   0.00000  Uiso   1.00
C93    C     0.28069   0.73501   0.29577   0.00000  Uiso   1.00
C94    C     0.26622   0.71893   0.29652   0.00000  Uiso   1.00
C95    C     0.26616   0.70368   0.28116   0.00000  Uiso   1.00
C96    C     0.28214   0.70295   0.26661   0.00000  Uiso   1.00
C97    C     0.25247   0.71821   0.31310   0.00000  Uiso   1.00
C98    C     0.25199   0.73334   0.32791   0.00000  Uiso   1.00
C99    C     0.26562   0.74966   0.32673   0.00000  Uiso   1.00
C100   C     0.27978   0.75033   0.31098   0.00000  Uiso   1.00
C101   C     0.31429   0.71752   0.25319   0.00000  Uiso   1.00
C102   C     0.32870   0.73301   0.25239   0.00000  Uiso   1.00
C103   C     0.32674   0.74990   0.26521   0.00000  Uiso   1.00
C104   C     0.31057   0.75086   0.27886   0.00000  Uiso   1.00
C105   C     0.28203   0.68697   0.25208   0.00000  Uiso   1.00
C106   C     0.26693   0.67211   0.25186   0.00000  Uiso   1.00
C107   C     0.25080   0.67332   0.26570   0.00000  Uiso   1.00
C108   C     0.25028   0.68914   0.27978   0.00000  Uiso   1.00
C109   C     0.23534   0.65860   0.26530   0.00000  Uiso   1.00
C110   C     0.23623   0.64260   0.25142   0.00000  Uiso   1.00
C111   C     0.25251   0.64132   0.23762   0.00000  Uiso   1.00
C112   C     0.26767   0.65610   0.23775   0.00000  Uiso   1.00
C113   C     0.26527   0.76491   0.34168   0.00000  Uiso   1.00
C114   C     0.25152   0.76375   0.35775   0.00000  Uiso   1.00
C115   C     0.23793   0.74729   0.35900   0.00000  Uiso   1.00
C116   C     0.23816   0.73220   0.34412   0.00000  Uiso   1.00
H37    H     0.24238   0.70558   0.31544   0.00000  Uiso   1.00
H38    H     0.29018   0.76287   0.31147   0.00000  Uiso   1.00
H39    H     0.31701   0.70487   0.24327   0.00000  Uiso   1.00
H40    H     0.30981   0.76439   0.28794   0.00000  Uiso   1.00
H41    H     0.29331   0.68563   0.24040   0.00000  Uiso   1.00
H42    H     0.23694   0.68994   0.28918   0.00000  Uiso   1.00
H43    H     0.22278   0.65935   0.27587   0.00000  Uiso   1.00
O19    O     0.22124   0.62764   0.25125   0.00000  Uiso   1.00
O20    O     0.25344   0.62509   0.22405   0.00000  Uiso   1.00
H44    H     0.28005   0.65494   0.22701   0.00000  Uiso   1.00
H45    H     0.27572   0.77758   0.34101   0.00000  Uiso   1.00
O21    O     0.25126   0.77867   0.37278   0.00000  Uiso   1.00
O22    O     0.22446   0.74612   0.37527   0.00000  Uiso   1.00
H46    H     0.22763   0.71963   0.34528   0.00000  Uiso   1.00
C117   C     0.34127   0.76554   0.26447   0.00000  Uiso   1.00
C118   C     0.35766   0.76420   0.25111   0.00000  Uiso   1.00
C119   C     0.35953   0.74727   0.23816   0.00000  Uiso   1.00
C120   C     0.34510   0.73179   0.23880   0.00000  Uiso   1.00
H47    H     0.34005   0.77862   0.27437   0.00000  Uiso   1.00
O23    O     0.37239   0.77939   0.25060   0.00000  Uiso   1.00
O24    O     0.37598   0.74604   0.22490   0.00000  Uiso   1.00
H48    H     0.34678   0.71886   0.22878   0.00000  Uiso   1.00
C121   C     0.29729   0.71803   0.73363   0.00000  Uiso   1.00
C122   C     0.29654   0.73404   0.71910   0.00000  Uiso   1.00
C123   C     0.28126   0.73400   0.70376   0.00000  Uiso   1.00
C124   C     0.26523   0.71947   0.70448   0.00000  Uiso   1.00
C125   C     0.26527   0.70416   0.71983   0.00000  Uiso   1.00
C126   C     0.28199   0.70267   0.73352   0.00000  Uiso   1.00
C127   C     0.25003   0.72020   0.68916   0.00000  Uiso   1.00
C128   C     0.25062   0.73441   0.67345   0.00000  Uiso   1.00
C129   C     0.26679   0.74824   0.67240   0.00000  Uiso   1.00
C130   C     0.28188   0.74784   0.68725   0.00000  Uiso   1.00
C131   C     0.31318   0.71817   0.74824   0.00000  Uiso   1.00
C132   C     0.32806   0.73324   0.74846   0.00000  Uiso   1.00
C133   C     0.32694   0.74934   0.73456   0.00000  Uiso   1.00
C134   C     0.31113   0.74987   0.72046   0.00000  Uiso   1.00
C135   C     0.28287   0.68573   0.74684   0.00000  Uiso   1.00
C136   C     0.26731   0.67141   0.74776   0.00000  Uiso   1.00
C137   C     0.25024   0.67357   0.73519   0.00000  Uiso   1.00
C138   C     0.24923   0.68982   0.72163   0.00000  Uiso   1.00
C139   C     0.23451   0.65916   0.73608   0.00000  Uiso   1.00
C140   C     0.23592   0.64267   0.74931   0.00000  Uiso   1.00
C141   C     0.25302   0.64058   0.76200   0.00000  Uiso   1.00
C142   C     0.26860   0.65490   0.76122   0.00000  Uiso   1.00
C143   C     0.26783   0.76216   0.65626   0.00000  Uiso   1.00
C144   C     0.25282   0.76227   0.64131   0.00000  Uiso   1.00
C145   C     0.23652   0.74847   0.64242   0.00000  Uiso   1.00
C146   C     0.23545   0.73463   0.65842   0.00000  Uiso   1.00
H49    H     0.23771   0.70954   0.68850   0.00000  Uiso   1.00
H50    H     0.29439   0.75809   0.68498   0.00000  Uiso   1.00
H51    H     0.31439   0.70697   0.76002   0.00000  Uiso   1.00
H52    H     0.31041   0.76319   0.71104   0.00000  Uiso   1.00
H53    H     0.29569   0.68284   0.75651   0.00000  Uiso   1.00
H54    H     0.23554   0.69085   0.71282   0.00000  Uiso   1.00
H55    H     0.22130   0.66054   0.72638   0.00000  Uiso   1.00
O25    O     0.22064   0.62803   0.74993   0.00000  Uiso   1.00
O26    O     0.25432   0.62405   0.77514   0.00000  Uiso   1.00
H56    H     0.28165   0.65307   0.77105   0.00000  Uiso   1.00
H57    H     0.28027   0.77284   0.65520   0.00000  Uiso   1.00
O27    O     0.25389   0.77584   0.62510   0.00000  Uiso   1.00
O28    O     0.22167   0.74862   0.62732   0.00000  Uiso   1.00
H58    H     0.22291   0.72402   0.65898   0.00000  Uiso   1.00
C147   C     0.34170   0.76475   0.73495   0.00000  Uiso   1.00
C148   C     0.35766   0.76387   0.74887   0.00000  Uiso   1.00
C149   C     0.35884   0.74764   0.76275   0.00000  Uiso   1.00
C150   C     0.34402   0.73252   0.76263   0.00000  Uiso   1.00
H59    H     0.34101   0.77728   0.72433   0.00000  Uiso   1.00
O29    O     0.37266   0.77881   0.74902   0.00000  Uiso   1.00
O30    O     0.37502   0.74672   0.77638   0.00000  Uiso   1.00
H60    H     0.34511   0.72017   0.77342   0.00000  Uiso   1.00
C151   C     0.29644   0.26587   0.71916   0.00000  Uiso   1.00
C152   C     0.29678   0.28159   0.73401   0.00000  Uiso   1.00
C153   C     0.28109   0.29650   0.73432   0.00000  Uiso   1.00
C154   C     0.26619   0.29680   0.71865   0.00000  Uiso   1.00
C155   C     0.26586   0.28109   0.70376   0.00000  Uiso   1.00
C156   C     0.28153   0.26618   0.70346   0.00000  Uiso   1.00
C157   C     0.25237   0.31334   0.71795   0.00000  Uiso   1.00
C158   C     0.25200   0.32821   0.73305   0.00000  Uiso   1.00
C159   C     0.26549   0.32684   0.74950   0.00000  Uiso   1.00
C160   C     0.27966   0.31109   0.75013   0.00000  Uiso   1.00
C161   C     0.31098   0.25002   0.72064   0.00000  Uiso   1.00
C162   C     0.32674   0.25066   0.73480   0.00000  Uiso   1.00
C163   C     0.32817   0.26718   0.74821   0.00000  Uiso   1.00
C164   C     0.31334   0.28232   0.74780   0.00000  Uiso   1.00
C165   C     0.28224   0.25235   0.68694   0.00000  Uiso   1.00
C166   C     0.26712   0.25196   0.67209   0.00000  Uiso   1.00
C167   C     0.25066   0.26545   0.67346   0.00000  Uiso   1.00
C168   C     0.25004   0.27964   0.68919   0.00000  Uiso   1.00
C169   C     0.23517   0.26485   0.65878   0.00000  Uiso   1.00
C170   C     0.23632   0.25114   0.64266   0.00000  Uiso   1.00
C171   C     0.25296   0.23775   0.64117   0.00000  Uiso   1.00
C172   C     0.26821   0.23812   0.65587   0.00000  Uiso   1.00
C173   C     0.26492   0.34154   0.76497   0.00000  Uiso   1.00
C174   C     0.25122   0.35767   0.76382   0.00000  Uiso   1.00
C175   C     0.23783   0.35916   0.74719   0.00000  Uiso   1.00
C176   C     0.23819   0.34445   0.73195   0.00000  Uiso   1.00
H61    H     0.24206   0.31552   0.70545   0.00000  Uiso   1.00
H62    H     0.28915   0.31043   0.76343   0.00000  Uiso   1.00
H63    H     0.31029   0.23669   0.71120   0.00000  Uiso   1.00
H64    H     0.31556   0.29487   0.75804   0.00000  Uiso   1.00
H65    H     0.29475   0.24206   0.68477   0.00000  Uiso   1.00
H66    H     0.23675   0.28914   0.68983   0.00000  Uiso   1.00
H67    H     0.22239   0.27516   0.65964   0.00000  Uiso   1.00
O31    O     0.22126   0.25075   0.62778   0.00000  Uiso   1.00
O32    O     0.25411   0.22432   0.62484   0.00000  Uiso   1.00
H68    H     0.28086   0.22770   0.65457   0.00000  Uiso   1.00
H69    H     0.27523   0.34067   0.77776   0.00000  Uiso   1.00
O33    O     0.25085   0.37256   0.77887   0.00000  Uiso   1.00
O34    O     0.22440   0.37549   0.74605   0.00000  Uiso   1.00
H70    H     0.22776   0.34575   0.71931   0.00000  Uiso   1.00
C177   C     0.34443   0.26831   0.76199   0.00000  Uiso   1.00
C178   C     0.35910   0.25302   0.76240   0.00000  Uiso   1.00
C179   C     0.35753   0.23631   0.74912   0.00000  Uiso   1.00
C180   C     0.34138   0.23514   0.73545   0.00000  Uiso   1.00
H71    H     0.34578   0.28101   0.77235   0.00000  Uiso   1.00
O35    O     0.37548   0.25421   0.77577   0.00000  Uiso   1.00
O36    O     0.37235   0.22120   0.74957   0.00000  Uiso   1.00
H72    H     0.34047   0.22230   0.72520   0.00000  Uiso   1.00
C181   C     0.70385   0.28088   0.73460   0.00000  Uiso   1.00
C182   C     0.70303   0.26634   0.71853   0.00000  Uiso   1.00
C183   C     0.71801   0.26667   0.70286   0.00000  Uiso   1.00
C184   C     0.73404   0.28114   0.70363   0.00000  Uiso   1.00
C185   C     0.73399   0.29654   0.71882   0.00000  Uiso   1.00
C186   C     0.71954   0.29585   0.73488   0.00000  Uiso   1.00
C187   C     0.74999   0.27966   0.68921   0.00000  Uiso   1.00
C188   C     0.74929   0.26579   0.67322   0.00000  Uiso   1.00
C189   C     0.73268   0.25257   0.67149   0.00000  Uiso   1.00
C190   C     0.71739   0.25301   0.68614   0.00000  Uiso   1.00
C191   C     0.68838   0.28041   0.74965   0.00000  Uiso   1.00
C192   C     0.67282   0.26604   0.74927   0.00000  Uiso   1.00
C193   C     0.67227   0.25153   0.73369   0.00000  Uiso   1.00
C194   C     0.68729   0.25159   0.71880   0.00000  Uiso   1.00
C195   C     0.72119   0.31046   0.75070   0.00000  Uiso   1.00
C196   C     0.73521   0.32634   0.74985   0.00000  Uiso   1.00
C197   C     0.74833   0.32788   0.73316   0.00000  Uiso   1.00
C198   C     0.74767   0.31316   0.71796   0.00000  Uiso   1.00
C199   C     0.76199   0.34422   0.73184   0.00000  Uiso   1.00
C200   C     0.76249   0.35894   0.74708   0.00000  Uiso   1.00
C201   C     0.74940   0.35735   0.76390   0.00000  Uiso   1.00
C202   C     0.73591   0.34107   0.76530   0.00000  Uiso   1.00
C203   C     0.73165   0.23886   0.65515   0.00000  Uiso   1.00
C204   C     0.74706   0.23842   0.64065   0.00000  Uiso   1.00
C205   C     0.76380   0.25162   0.64244   0.00000  Uiso   1.00
C206   C     0.76492   0.26516   0.65871   0.00000  Uiso   1.00
H73    H     0.76350   0.28879   0.69030   0.00000  Uiso   1.00
H74    H     0.70507   0.24261   0.68373   0.00000  Uiso   1.00
H75    H     0.68761   0.29127   0.76179   0.00000  Uiso   1.00
H76    H     0.68621   0.23967   0.70772   0.00000  Uiso   1.00
H77    H     0.71180   0.31006   0.76402   0.00000  Uiso   1.00
H78    H     0.75752   0.31558   0.70515   0.00000  Uiso   1.00
H79    H     0.77215   0.34563   0.71901   0.00000  Uiso   1.00
O37    O     0.77575   0.37538   0.74571   0.00000  Uiso   1.00
O38    O     0.74985   0.37228   0.77891   0.00000  Uiso   1.00
H80    H     0.72584   0.34013   0.77825   0.00000  Uiso   1.00
H81    H     0.71892   0.22857   0.65361   0.00000  Uiso   1.00
O39    O     0.74598   0.22508   0.62424   0.00000  Uiso   1.00
O40    O     0.77900   0.25120   0.62773   0.00000  Uiso   1.00
H82    H     0.77782   0.27530   0.65984   0.00000  Uiso   1.00
C207   C     0.65650   0.23715   0.73308   0.00000  Uiso   1.00
C208   C     0.64136   0.23735   0.74786   0.00000  Uiso   1.00
C209   C     0.64199   0.25181   0.76362   0.00000  Uiso   1.00
C210   C     0.65766   0.26606   0.76430   0.00000  Uiso   1.00
H83    H     0.65581   0.22594   0.72107   0.00000  Uiso   1.00
O41    O     0.62540   0.22347   0.74706   0.00000  Uiso   1.00
O42    O     0.62677   0.25187   0.77832   0.00000  Uiso   1.00
H84    H     0.65789   0.27715   0.77645   0.00000  Uiso   1.00
C211   C     0.70299   0.73366   0.71818   0.00000  Uiso   1.00
C212   C     0.70354   0.71890   0.73397   0.00000  Uiso   1.00
C213   C     0.71873   0.70349   0.73385   0.00000  Uiso   1.00
C214   C     0.73502   0.70445   0.71968   0.00000  Uiso   1.00
C215   C     0.73485   0.71956   0.70411   0.00000  Uiso   1.00
C216   C     0.71843   0.73369   0.70294   0.00000  Uiso   1.00
C217   C     0.75079   0.68976   0.72125   0.00000  Uiso   1.00
C218   C     0.74985   0.67377   0.73513   0.00000  Uiso   1.00
C219   C     0.73303   0.67207   0.74807   0.00000  Uiso   1.00
C220   C     0.71775   0.68671   0.74732   0.00000  Uiso   1.00
C221   C     0.68695   0.74813   0.71827   0.00000  Uiso   1.00
C222   C     0.67206   0.74826   0.73333   0.00000  Uiso   1.00
C223   C     0.67322   0.73433   0.74938   0.00000  Uiso   1.00
C224   C     0.68898   0.72018   0.74981   0.00000  Uiso   1.00
C225   C     0.71798   0.74757   0.68643   0.00000  Uiso   1.00
C226   C     0.73322   0.74804   0.67177   0.00000  Uiso   1.00
C227   C     0.74957   0.73446   0.67314   0.00000  Uiso   1.00
C228   C     0.75029   0.72051   0.68905   0.00000  Uiso   1.00
C229   C     0.76492   0.73481   0.65830   0.00000  Uiso   1.00
C230   C     0.76384   0.74854   0.64220   0.00000  Uiso   1.00
C231   C     0.74739   0.76216   0.64085   0.00000  Uiso   1.00
C232   C     0.73222   0.76192   0.65560   0.00000  Uiso   1.00
C233   C     0.73165   0.65564   0.76161   0.00000  Uiso   1.00
C234   C     0.74696   0.64100   0.76219   0.00000  Uiso   1.00
C235   C     0.76389   0.64273   0.74926   0.00000  Uiso   1.00
C236   C     0.76534   0.65908   0.73587   0.00000  Uiso   1.00
H85    H     0.76409   0.69009   0.71184   0.00000  Uiso   1.00
H86    H     0.70481   0.68410   0.75695   0.00000  Uiso   1.00
H87    H     0.68550   0.75977   0.70696   0.00000  Uiso   1.00
H88    H     0.68976   0.71067   0.76307   0.00000  Uiso   1.00
H89    H     0.70580   0.75817   0.68416   0.00000  Uiso   1.00
H90    H     0.76310   0.71042   0.68893   0.00000  Uiso   1.00
H91    H     0.77762   0.72438   0.65910   0.00000  Uiso   1.00
O43    O     0.77883   0.74879   0.62726   0.00000  Uiso   1.00
O44    O     0.74632   0.77567   0.62460   0.00000  Uiso   1.00
H92    H     0.71966   0.77247   0.65433   0.00000  Uiso   1.00
H93    H     0.71872   0.65412   0.77164   0.00000  Uiso   1.00
O45    O     0.74556   0.62452   0.77538   0.00000  Uiso   1.00
O46    O     0.77897   0.62786   0.74978   0.00000  Uiso   1.00
H94    H     0.77839   0.66012   0.72593   0.00000  Uiso   1.00
C237   C     0.65850   0.73468   0.76482   0.00000  Uiso   1.00
C238   C     0.64252   0.74858   0.76399   0.00000  Uiso   1.00
C239   C     0.64125   0.76245   0.74776   0.00000  Uiso   1.00
C240   C     0.65604   0.76237   0.73262   0.00000  Uiso   1.00
H95    H     0.65923   0.72404   0.77733   0.00000  Uiso   1.00
O47    O     0.62758   0.74872   0.77898   0.00000  Uiso   1.00
O48    O     0.62503   0.77603   0.74687   0.00000  Uiso   1.00
H96    H     0.65490   0.77317   0.72029   0.00000  Uiso   1.00
C241   C     0.17226   0.17234   0.51097   0.00000  Uiso   1.00
C242   C     0.17248   0.17213   0.48933   0.00000  Uiso   1.00
C243   C     0.18535   0.18579   0.47854   0.00000  Uiso   1.00
C244   C     0.19910   0.19847   0.48941   0.00000  Uiso   1.00
C245   C     0.19862   0.19893   0.51102   0.00000  Uiso   1.00
C246   C     0.18593   0.18518   0.52182   0.00000  Uiso   1.00
C247   C     0.21340   0.21007   0.47824   0.00000  Uiso   1.00
C248   C     0.21300   0.21086   0.45709   0.00000  Uiso   1.00
C249   C     0.19824   0.19979   0.44641   0.00000  Uiso   1.00
C250   C     0.18465   0.18749   0.45705   0.00000  Uiso   1.00
C251   C     0.15789   0.15996   0.52119   0.00000  Uiso   1.00
C252   C     0.14530   0.14650   0.51073   0.00000  Uiso   1.00
C253   C     0.14658   0.14521   0.48950   0.00000  Uiso   1.00
C254   C     0.16004   0.15780   0.47907   0.00000  Uiso   1.00
C255   C     0.18762   0.18444   0.54331   0.00000  Uiso   1.00
C256   C     0.19987   0.19803   0.55402   0.00000  Uiso   1.00
C257   C     0.21097   0.21279   0.54341   0.00000  Uiso   1.00
C258   C     0.21021   0.21322   0.52226   0.00000  Uiso   1.00
C259   C     0.22293   0.22686   0.55410   0.00000  Uiso   1.00
C260   C     0.22398   0.22604   0.57523   0.00000  Uiso   1.00
C261   C     0.21299   0.21113   0.58590   0.00000  Uiso   1.00
C262   C     0.20099   0.19722   0.57532   0.00000  Uiso   1.00
C263   C     0.19743   0.20097   0.42511   0.00000  Uiso   1.00
C264   C     0.21137   0.21296   0.41460   0.00000  Uiso   1.00
C265   C     0.22632   0.22388   0.42533   0.00000  Uiso   1.00
C266   C     0.22709   0.22282   0.44646   0.00000  Uiso   1.00
H97    H     0.22549   0.21830   0.48554   0.00000  Uiso   1.00
H98    H     0.17338   0.17979   0.44807   0.00000  Uiso   1.00
H99    H     0.15571   0.16073   0.53736   0.00000  Uiso   1.00
H100   H     0.16078   0.15564   0.46290   0.00000  Uiso   1.00
H101   H     0.17995   0.17312   0.55223   0.00000  Uiso   1.00
H102   H     0.21846   0.22531   0.51501   0.00000  Uiso   1.00
H103   H     0.23155   0.23834   0.54610   0.00000  Uiso   1.00
O49    O     0.23594   0.23986   0.58592   0.00000  Uiso   1.00
O50    O     0.21421   0.21045   0.60703   0.00000  Uiso   1.00
H104   H     0.19252   0.18592   0.58373   0.00000  Uiso   1.00
H105   H     0.18610   0.19257   0.41666   0.00000  Uiso   1.00
O51    O     0.21069   0.21424   0.39348   0.00000  Uiso   1.00
O52    O     0.24022   0.23576   0.41470   0.00000  Uiso   1.00
H106   H     0.23858   0.23141   0.45451   0.00000  Uiso   1.00
C267   C     0.13416   0.13145   0.47891   0.00000  Uiso   1.00
C268   C     0.12053   0.11914   0.48946   0.00000  Uiso   1.00
C269   C     0.11925   0.12045   0.51076   0.00000  Uiso   1.00
C270   C     0.13154   0.13410   0.52131   0.00000  Uiso   1.00
H107   H     0.13494   0.13030   0.46254   0.00000  Uiso   1.00
O53    O     0.10808   0.10553   0.47906   0.00000  Uiso   1.00
O54    O     0.10567   0.10799   0.52115   0.00000  Uiso   1.00
H108   H     0.13041   0.13491   0.53768   0.00000  Uiso   1.00
C271   C     0.80110   0.19859   0.48933   0.00000  Uiso   1.00
C272   C     0.81483   0.18589   0.47850   0.00000  Uiso   1.00
C273   C     0.82772   0.17224   0.48932   0.00000  Uiso   1.00
C274   C     0.82795   0.17248   0.51096   0.00000  Uiso   1.00
C275   C     0.81432   0.18539   0.52177   0.00000  Uiso   1.00
C276   C     0.80166   0.19916   0.51093   0.00000  Uiso   1.00
C277   C     0.84230   0.16006   0.52122   0.00000  Uiso   1.00
C278   C     0.85490   0.14658   0.51077   0.00000  Uiso   1.00
C279   C     0.85360   0.14527   0.48954   0.00000  Uiso   1.00
C280   C     0.84013   0.15787   0.47909   0.00000  Uiso   1.00
C281   C     0.78670   0.21009   0.47815   0.00000  Uiso   1.00
C282   C     0.78704   0.21081   0.45700   0.00000  Uiso   1.00
C283   C     0.80184   0.19978   0.44633   0.00000  Uiso   1.00
C284   C     0.81550   0.18754   0.45700   0.00000  Uiso   1.00
C285   C     0.79019   0.21359   0.52210   0.00000  Uiso   1.00
C286   C     0.78943   0.21323   0.54325   0.00000  Uiso   1.00
C287   C     0.80041   0.19839   0.55392   0.00000  Uiso   1.00
C288   C     0.81262   0.18471   0.54327   0.00000  Uiso   1.00
C289   C     0.79920   0.19760   0.57522   0.00000  Uiso   1.00
C290   C     0.78727   0.21162   0.58573   0.00000  Uiso   1.00
C291   C     0.77647   0.22666   0.57500   0.00000  Uiso   1.00
C292   C     0.77758   0.22743   0.55388   0.00000  Uiso   1.00
C293   C     0.86600   0.13148   0.47897   0.00000  Uiso   1.00
C294   C     0.87966   0.11918   0.48952   0.00000  Uiso   1.00
C295   C     0.88098   0.12052   0.51083   0.00000  Uiso   1.00
C296   C     0.86868   0.13418   0.52136   0.00000  Uiso   1.00
H109   H     0.84447   0.16083   0.53739   0.00000  Uiso   1.00
H110   H     0.83937   0.15569   0.46292   0.00000  Uiso   1.00
H111   H     0.77459   0.21828   0.48546   0.00000  Uiso   1.00
H112   H     0.82679   0.17986   0.44804   0.00000  Uiso   1.00
H113   H     0.78205   0.22573   0.51478   0.00000  Uiso   1.00
H114   H     0.82026   0.17338   0.55223   0.00000  Uiso   1.00
H115   H     0.80752   0.18620   0.58367   0.00000  Uiso   1.00
O55    O     0.78592   0.21092   0.60685   0.00000  Uiso   1.00
O56    O     0.76461   0.24061   0.58563   0.00000  Uiso   1.00
H116   H     0.76907   0.23898   0.54583   0.00000  Uiso   1.00
H117   H     0.86519   0.13031   0.46260   0.00000  Uiso   1.00
O57    O     0.89211   0.10556   0.47914   0.00000  Uiso   1.00
O58    O     0.89460   0.10808   0.52122   0.00000  Uiso   1.00
H118   H     0.86984   0.13501   0.53774   0.00000  Uiso   1.00
C297   C     0.80261   0.20093   0.42503   0.00000  Uiso   1.00
C298   C     0.78860   0.21288   0.41451   0.00000  Uiso   1.00
C299   C     0.77361   0.22375   0.42524   0.00000  Uiso   1.00
C300   C     0.77286   0.22269   0.44636   0.00000  Uiso   1.00
H119   H     0.81396   0.19256   0.41659   0.00000  Uiso   1.00
O59    O     0.78927   0.21418   0.39339   0.00000  Uiso   1.00
O60    O     0.75969   0.23563   0.41460   0.00000  Uiso   1.00
H120   H     0.76135   0.23125   0.45440   0.00000  Uiso   1.00
C301   C     0.80166   0.80114   0.51085   0.00000  Uiso   1.00
C302   C     0.81445   0.81478   0.52172   0.00000  Uiso   1.00
C303   C     0.82812   0.82765   0.51093   0.00000  Uiso   1.00
C304   C     0.82787   0.82790   0.48929   0.00000  Uiso   1.00
C305   C     0.81501   0.81426   0.47845   0.00000  Uiso   1.00
C306   C     0.80120   0.80163   0.48923   0.00000  Uiso   1.00
C307   C     0.84024   0.84228   0.47907   0.00000  Uiso   1.00
C308   C     0.85372   0.85486   0.48952   0.00000  Uiso   1.00
C309   C     0.85503   0.85356   0.51075   0.00000  Uiso   1.00
C310   C     0.84247   0.84008   0.52119   0.00000  Uiso   1.00
C311   C     0.78994   0.78692   0.52201   0.00000  Uiso   1.00
C312   C     0.78922   0.78726   0.54316   0.00000  Uiso   1.00
C313   C     0.80051   0.80183   0.55387   0.00000  Uiso   1.00
C314   C     0.81287   0.81536   0.54323   0.00000  Uiso   1.00
C315   C     0.78689   0.79009   0.47798   0.00000  Uiso   1.00
C316   C     0.78734   0.78931   0.45683   0.00000  Uiso   1.00
C317   C     0.80216   0.80035   0.44623   0.00000  Uiso   1.00
C318   C     0.81578   0.81256   0.45696   0.00000  Uiso   1.00
C319   C     0.80300   0.79921   0.42493   0.00000  Uiso   1.00
C320   C     0.78908   0.78724   0.41434   0.00000  Uiso   1.00
C321   C     0.77412   0.77629   0.42500   0.00000  Uiso   1.00
C322   C     0.77326   0.77738   0.44612   0.00000  Uiso   1.00
C323   C     0.86880   0.86598   0.52133   0.00000  Uiso   1.00
C324   C     0.88109   0.87962   0.51079   0.00000  Uiso   1.00
C325   C     0.87976   0.88092   0.48949   0.00000  Uiso   1.00
C326   C     0.86610   0.86863   0.47894   0.00000  Uiso   1.00
H121   H     0.83943   0.84450   0.46291   0.00000  Uiso   1.00
H122   H     0.84464   0.83935   0.53735   0.00000  Uiso   1.00
H123   H     0.78156   0.77494   0.51470   0.00000  Uiso   1.00
H124   H     0.82073   0.82649   0.55225   0.00000  Uiso   1.00
H125   H     0.77476   0.78188   0.48520   0.00000  Uiso   1.00
H126   H     0.82715   0.82017   0.44805   0.00000  Uiso   1.00
H127   H     0.81435   0.80763   0.41654   0.00000  Uiso   1.00
O61    O     0.78980   0.78599   0.39322   0.00000  Uiso   1.00
O62    O     0.76030   0.76435   0.41429   0.00000  Uiso   1.00
H128   H     0.76174   0.76881   0.45411   0.00000  Uiso   1.00
H129   H     0.86997   0.86518   0.53771   0.00000  Uiso   1.00
O63    O     0.89470   0.89207   0.52118   0.00000  Uiso   1.00
O64    O     0.89220   0.89451   0.47909   0.00000  Uiso   1.00
H130   H     0.86527   0.86979   0.46257   0.00000  Uiso   1.00
C327   C     0.79947   0.80251   0.57517   0.00000  Uiso   1.00
C328   C     0.78737   0.78865   0.58567   0.00000  Uiso   1.00
C329   C     0.77616   0.77394   0.57490   0.00000  Uiso   1.00
C330   C     0.77711   0.77327   0.55376   0.00000  Uiso   1.00
H131   H     0.80807   0.81368   0.58365   0.00000  Uiso   1.00
O65    O     0.78627   0.78917   0.60680   0.00000  Uiso   1.00
O66    O     0.76410   0.76018   0.58551   0.00000  Uiso   1.00
H132   H     0.76832   0.76195   0.54569   0.00000  Uiso   1.00
C331   C     0.17265   0.82788   0.48931   0.00000  Uiso   1.00
C332   C     0.17225   0.82747   0.51094   0.00000  Uiso   1.00
C333   C     0.18589   0.81458   0.52177   0.00000  Uiso   1.00
C334   C     0.19877   0.80099   0.51094   0.00000  Uiso   1.00
C335   C     0.19927   0.80149   0.48931   0.00000  Uiso   1.00
C336   C     0.18556   0.81425   0.47849   0.00000  Uiso   1.00
C337   C     0.21056   0.78684   0.52215   0.00000  Uiso   1.00
C338   C     0.21122   0.78717   0.54331   0.00000  Uiso   1.00
C339   C     0.19977   0.80164   0.55397   0.00000  Uiso   1.00
C340   C     0.18737   0.81513   0.54329   0.00000  Uiso   1.00
C341   C     0.16035   0.84234   0.47908   0.00000  Uiso   1.00
C342   C     0.14677   0.85483   0.48951   0.00000  Uiso   1.00
C343   C     0.14530   0.85337   0.51071   0.00000  Uiso   1.00
C344   C     0.15778   0.83979   0.52115   0.00000  Uiso   1.00
C345   C     0.18490   0.81266   0.45698   0.00000  Uiso   1.00
C346   C     0.19844   0.80033   0.44628   0.00000  Uiso   1.00
C347   C     0.21308   0.78907   0.45693   0.00000  Uiso   1.00
C348   C     0.21349   0.78982   0.47808   0.00000  Uiso   1.00
C349   C     0.22703   0.77695   0.44626   0.00000  Uiso   1.00
C350   C     0.22626   0.77595   0.42513   0.00000  Uiso   1.00
C351   C     0.21151   0.78716   0.41442   0.00000  Uiso   1.00
C352   C     0.19768   0.79928   0.42498   0.00000  Uiso   1.00
C353   C     0.20070   0.80228   0.57529   0.00000  Uiso   1.00
C354   C     0.21291   0.78852   0.58583   0.00000  Uiso   1.00
C355   C     0.22433   0.77395   0.57510   0.00000  Uiso   1.00
C356   C     0.22344   0.77328   0.55396   0.00000  Uiso   1.00
H133   H     0.21908   0.77493   0.51491   0.00000  Uiso   1.00
H134   H     0.17943   0.82622   0.55228   0.00000  Uiso   1.00
H135   H     0.16130   0.84470   0.46295   0.00000  Uiso   1.00
H136   H     0.15543   0.83888   0.53728   0.00000  Uiso   1.00
H137   H     0.17367   0.82045   0.44803   0.00000  Uiso   1.00
H138   H     0.22551   0.78143   0.48531   0.00000  Uiso   1.00
H139   H     0.23840   0.76817   0.45429   0.00000  Uiso   1.00
O67    O     0.23996   0.76385   0.41446   0.00000  Uiso   1.00
O68    O     0.21091   0.78604   0.39329   0.00000  Uiso   1.00
H140   H     0.18648   0.80788   0.41655   0.00000  Uiso   1.00
H141   H     0.19195   0.81335   0.58374   0.00000  Uiso   1.00
O69    O     0.21390   0.78900   0.60697   0.00000  Uiso   1.00
O70    O     0.23653   0.76032   0.58575   0.00000  Uiso   1.00
H142   H     0.23237   0.76205   0.54592   0.00000  Uiso   1.00
C357   C     0.13146   0.86572   0.52128   0.00000  Uiso   1.00
C358   C     0.11925   0.87947   0.51074   0.00000  Uiso   1.00
C359   C     0.12069   0.88090   0.48946   0.00000  Uiso   1.00
C360   C     0.13443   0.86868   0.47893   0.00000  Uiso   1.00
H143   H     0.13019   0.86481   0.53764   0.00000  Uiso   1.00
O71    O     0.10561   0.89189   0.52112   0.00000  Uiso   1.00
O72    O     0.10828   0.89455   0.47907   0.00000  Uiso   1.00
H144   H     0.13535   0.86994   0.46257   0.00000  Uiso   1.00
C361   C     0.48934   0.19876   0.19929   0.00000  Uiso   1.00
C362   C     0.47849   0.18613   0.18548   0.00000  Uiso   1.00
C363   C     0.48929   0.17241   0.17266   0.00000  Uiso   1.00
C364   C     0.51094   0.17254   0.17252   0.00000  Uiso   1.00
C365   C     0.52176   0.18531   0.18626   0.00000  Uiso   1.00
C366   C     0.51096   0.19913   0.19890   0.00000  Uiso   1.00
C367   C     0.52118   0.16014   0.15816   0.00000  Uiso   1.00
C368   C     0.51072   0.14672   0.14552   0.00000  Uiso   1.00
C369   C     0.48948   0.14547   0.14677   0.00000  Uiso   1.00
C370   C     0.47903   0.15809   0.16022   0.00000  Uiso   1.00
C371   C     0.47814   0.21038   0.21357   0.00000  Uiso   1.00
C372   C     0.45698   0.21124   0.21309   0.00000  Uiso   1.00
C373   C     0.44634   0.20025   0.19823   0.00000  Uiso   1.00
C374   C     0.45702   0.18795   0.18466   0.00000  Uiso   1.00
C375   C     0.52220   0.21340   0.21051   0.00000  Uiso   1.00
C376   C     0.54336   0.21287   0.21134   0.00000  Uiso   1.00
C377   C     0.55396   0.19799   0.20035   0.00000  Uiso   1.00
C378   C     0.54324   0.18443   0.18807   0.00000  Uiso   1.00
C379   C     0.57525   0.19703   0.20158   0.00000  Uiso   1.00
C380   C     0.58585   0.21096   0.21353   0.00000  Uiso   1.00
C381   C     0.57521   0.22605   0.22436   0.00000  Uiso   1.00
C382   C     0.55408   0.22697   0.22325   0.00000  Uiso   1.00
C383   C     0.47889   0.13173   0.13433   0.00000  Uiso   1.00
C384   C     0.48944   0.11941   0.12070   0.00000  Uiso   1.00
C385   C     0.51075   0.12069   0.11942   0.00000  Uiso   1.00
C386   C     0.52130   0.13431   0.13175   0.00000  Uiso   1.00
H145   H     0.53735   0.16089   0.15601   0.00000  Uiso   1.00
H146   H     0.46285   0.15596   0.16095   0.00000  Uiso   1.00
H147   H     0.48543   0.21857   0.22571   0.00000  Uiso   1.00
H148   H     0.44808   0.18033   0.17330   0.00000  Uiso   1.00
H149   H     0.51495   0.22554   0.21871   0.00000  Uiso   1.00
H150   H     0.55214   0.17303   0.18046   0.00000  Uiso   1.00
H151   H     0.58363   0.18562   0.19323   0.00000  Uiso   1.00
O73    O     0.60697   0.21015   0.21483   0.00000  Uiso   1.00
O74    O     0.58595   0.23994   0.23619   0.00000  Uiso   1.00
H152   H     0.54610   0.23857   0.23176   0.00000  Uiso   1.00
H153   H     0.46251   0.13061   0.13511   0.00000  Uiso   1.00
O75    O     0.47905   0.10582   0.10823   0.00000  Uiso   1.00
O76    O     0.52115   0.10824   0.10582   0.00000  Uiso   1.00
H154   H     0.53769   0.13509   0.13063   0.00000  Uiso   1.00
C387   C     0.42504   0.20151   0.19732   0.00000  Uiso   1.00
C388   C     0.41449   0.21347   0.21128   0.00000  Uiso   1.00
C389   C     0.42518   0.22430   0.22633   0.00000  Uiso   1.00
C390   C     0.44631   0.22317   0.22719   0.00000  Uiso   1.00
H155   H     0.41662   0.19317   0.18592   0.00000  Uiso   1.00
O77    O     0.39336   0.21478   0.21053   0.00000  Uiso   1.00
O78    O     0.41449   0.23614   0.24024   0.00000  Uiso   1.00
H156   H     0.45433   0.23168   0.23876   0.00000  Uiso   1.00
C391   C     0.80177   0.51100   0.19908   0.00000  Uiso   1.00
C392   C     0.81426   0.52182   0.18517   0.00000  Uiso   1.00
C393   C     0.82785   0.51101   0.17224   0.00000  Uiso   1.00
C394   C     0.82758   0.48936   0.17190   0.00000  Uiso   1.00
C395   C     0.81474   0.47851   0.18556   0.00000  Uiso   1.00
C396   C     0.80132   0.48936   0.19862   0.00000  Uiso   1.00
C397   C     0.84001   0.47917   0.15752   0.00000  Uiso   1.00
C398   C     0.85348   0.48966   0.14499   0.00000  Uiso   1.00
C399   C     0.85477   0.51090   0.14638   0.00000  Uiso   1.00
C400   C     0.84221   0.52130   0.15990   0.00000  Uiso   1.00
C401   C     0.79028   0.52225   0.21344   0.00000  Uiso   1.00
C402   C     0.78941   0.54340   0.21293   0.00000  Uiso   1.00
C403   C     0.80031   0.55403   0.19804   0.00000  Uiso   1.00
C404   C     0.81247   0.54331   0.18437   0.00000  Uiso   1.00
C405   C     0.78736   0.47815   0.21060   0.00000  Uiso   1.00
C406   C     0.78762   0.45699   0.21118   0.00000  Uiso   1.00
C407   C     0.80180   0.44629   0.19941   0.00000  Uiso   1.00
C408   C     0.81515   0.45697   0.18689   0.00000  Uiso   1.00
C409   C     0.80229   0.42495   0.20014   0.00000  Uiso   1.00
C410   C     0.78867   0.41442   0.21248   0.00000  Uiso   1.00
C411   C     0.77447   0.42520   0.22431   0.00000  Uiso   1.00
C412   C     0.77394   0.44636   0.22360   0.00000  Uiso   1.00
C413   C     0.86854   0.52152   0.13403   0.00000  Uiso   1.00
C414   C     0.88085   0.51102   0.12035   0.00000  Uiso   1.00
C415   C     0.87956   0.48970   0.11898   0.00000  Uiso   1.00
C416   C     0.86591   0.47912   0.13122   0.00000  Uiso   1.00
H157   H     0.83935   0.46300   0.15530   0.00000  Uiso   1.00
H158   H     0.84445   0.53746   0.16081   0.00000  Uiso   1.00
H159   H     0.78215   0.51504   0.22562   0.00000  Uiso   1.00
H160   H     0.81995   0.55222   0.17292   0.00000  Uiso   1.00
H161   H     0.77561   0.48541   0.21933   0.00000  Uiso   1.00
H162   H     0.82598   0.44791   0.17868   0.00000  Uiso   1.00
H163   H     0.81311   0.41647   0.19112   0.00000  Uiso   1.00
O79    O     0.78894   0.39326   0.21321   0.00000  Uiso   1.00
O80    O     0.76105   0.41457   0.23672   0.00000  Uiso   1.00
H164   H     0.76296   0.45442   0.23280   0.00000  Uiso   1.00
H165   H     0.86968   0.53791   0.13490   0.00000  Uiso   1.00
O81    O     0.89443   0.52145   0.10794   0.00000  Uiso   1.00
O82    O     0.89203   0.47934   0.10537   0.00000  Uiso   1.00
H166   H     0.86513   0.46274   0.13001   0.00000  Uiso   1.00
C417   C     0.79910   0.57533   0.19718   0.00000  Uiso   1.00
C418   C     0.78717   0.58590   0.21115   0.00000  Uiso   1.00
C419   C     0.77632   0.57521   0.22616   0.00000  Uiso   1.00
C420   C     0.77749   0.55409   0.22704   0.00000  Uiso   1.00
H167   H     0.80742   0.58374   0.18578   0.00000  Uiso   1.00
O83    O     0.78587   0.60703   0.21042   0.00000  Uiso   1.00
O84    O     0.76440   0.58589   0.24000   0.00000  Uiso   1.00
H168   H     0.76900   0.54608   0.23860   0.00000  Uiso   1.00
C421   C     0.48936   0.82811   0.17245   0.00000  Uiso   1.00
C422   C     0.51100   0.82791   0.17228   0.00000  Uiso   1.00
C423   C     0.52182   0.81508   0.18597   0.00000  Uiso   1.00
C424   C     0.51099   0.80135   0.19865   0.00000  Uiso   1.00
C425   C     0.48938   0.80184   0.19911   0.00000  Uiso   1.00
C426   C     0.47854   0.81445   0.18530   0.00000  Uiso   1.00
C427   C     0.52220   0.78705   0.21025   0.00000  Uiso   1.00
C428   C     0.54336   0.78744   0.21102   0.00000  Uiso   1.00
C429   C     0.55401   0.80220   0.19994   0.00000  Uiso   1.00
C430   C     0.54332   0.81580   0.18769   0.00000  Uiso   1.00
C431   C     0.47911   0.84244   0.16002   0.00000  Uiso   1.00
C432   C     0.48957   0.85504   0.14658   0.00000  Uiso   1.00
C433   C     0.51081   0.85376   0.14534   0.00000  Uiso   1.00
C434   C     0.52125   0.84030   0.15793   0.00000  Uiso   1.00
C435   C     0.45705   0.81270   0.18452   0.00000  Uiso   1.00
C436   C     0.44637   0.80045   0.19813   0.00000  Uiso   1.00
C437   C     0.45703   0.78952   0.21301   0.00000  Uiso   1.00
C438   C     0.47818   0.79033   0.21346   0.00000  Uiso   1.00
C439   C     0.44637   0.77768   0.22718   0.00000  Uiso   1.00
C440   C     0.42524   0.77657   0.22633   0.00000  Uiso   1.00
C441   C     0.41454   0.78727   0.21121   0.00000  Uiso   1.00
C442   C     0.42508   0.79918   0.19722   0.00000  Uiso   1.00
C443   C     0.57531   0.80298   0.20108   0.00000  Uiso   1.00
C444   C     0.58586   0.78905   0.21307   0.00000  Uiso   1.00
C445   C     0.57516   0.77414   0.22403   0.00000  Uiso   1.00
C446   C     0.55402   0.77335   0.22297   0.00000  Uiso   1.00
H169   H     0.51491   0.77496   0.21847   0.00000  Uiso   1.00
H170   H     0.55227   0.82711   0.18003   0.00000  Uiso   1.00
H171   H     0.46293   0.84460   0.16075   0.00000  Uiso   1.00
H172   H     0.53743   0.83953   0.15578   0.00000  Uiso   1.00
H173   H     0.44811   0.82032   0.17317   0.00000  Uiso   1.00
H174   H     0.48548   0.78219   0.22562   0.00000  Uiso   1.00
H175   H     0.45440   0.76922   0.23877   0.00000  Uiso   1.00
O85    O     0.41457   0.76484   0.24033   0.00000  Uiso   1.00
O86    O     0.39342   0.78586   0.21040   0.00000  Uiso   1.00
H176   H     0.41665   0.80745   0.18578   0.00000  Uiso   1.00
H177   H     0.58374   0.81428   0.19264   0.00000  Uiso   1.00
O87    O     0.60700   0.78971   0.21430   0.00000  Uiso   1.00
O88    O     0.58583   0.76030   0.23598   0.00000  Uiso   1.00
H178   H     0.54600   0.76187   0.23157   0.00000  Uiso   1.00
C447   C     0.52140   0.86617   0.13160   0.00000  Uiso   1.00
C448   C     0.51087   0.87983   0.11931   0.00000  Uiso   1.00
C449   C     0.48955   0.88113   0.12057   0.00000  Uiso   1.00
C450   C     0.47899   0.86881   0.13417   0.00000  Uiso   1.00
H179   H     0.53779   0.86537   0.13049   0.00000  Uiso   1.00
O89    O     0.52128   0.89230   0.10575   0.00000  Uiso   1.00
O90    O     0.47917   0.89475   0.10813   0.00000  Uiso   1.00
H180   H     0.46261   0.86995   0.13493   0.00000  Uiso   1.00
C451   C     0.17205   0.51089   0.17252   0.00000  Uiso   1.00
C452   C     0.17253   0.48925   0.17203   0.00000  Uiso   1.00
C453   C     0.18546   0.47842   0.18563   0.00000  Uiso   1.00
C454   C     0.19905   0.48925   0.19853   0.00000  Uiso   1.00
C455   C     0.19853   0.51090   0.19903   0.00000  Uiso   1.00
C456   C     0.18567   0.52172   0.18542   0.00000  Uiso   1.00
C457   C     0.21317   0.47800   0.21032   0.00000  Uiso   1.00
C458   C     0.21287   0.45682   0.21090   0.00000  Uiso   1.00
C459   C     0.19843   0.44617   0.19940   0.00000  Uiso   1.00
C460   C     0.18492   0.45689   0.18707   0.00000  Uiso   1.00
C461   C     0.15753   0.52111   0.16026   0.00000  Uiso   1.00
C462   C     0.14507   0.51067   0.14665   0.00000  Uiso   1.00
C463   C     0.14661   0.48947   0.14511   0.00000  Uiso   1.00
C464   C     0.16024   0.47903   0.15754   0.00000  Uiso   1.00
C465   C     0.18714   0.54325   0.18484   0.00000  Uiso   1.00
C466   C     0.19947   0.55398   0.19835   0.00000  Uiso   1.00
C467   C     0.21091   0.54334   0.21285   0.00000  Uiso   1.00
C468   C     0.21031   0.52216   0.21317   0.00000  Uiso   1.00
C469   C     0.22306   0.55405   0.22676   0.00000  Uiso   1.00
C470   C     0.22388   0.57520   0.22609   0.00000  Uiso   1.00
C471   C     0.21248   0.58590   0.21148   0.00000  Uiso   1.00
C472   C     0.20036   0.57531   0.19769   0.00000  Uiso   1.00
C473   C     0.19782   0.42484   0.20023   0.00000  Uiso   1.00
C474   C     0.21158   0.41426   0.21239   0.00000  Uiso   1.00
C475   C     0.22611   0.42497   0.22389   0.00000  Uiso   1.00
C476   C     0.22675   0.44612   0.22309   0.00000  Uiso   1.00
H181   H     0.22503   0.48521   0.21893   0.00000  Uiso   1.00
H182   H     0.17381   0.44791   0.17914   0.00000  Uiso   1.00
H183   H     0.15511   0.53723   0.16126   0.00000  Uiso   1.00
H184   H     0.16121   0.46290   0.15513   0.00000  Uiso   1.00
H185   H     0.17926   0.55221   0.17369   0.00000  Uiso   1.00
H186   H     0.21888   0.51495   0.22505   0.00000  Uiso   1.00
H187   H     0.23198   0.54604   0.23801   0.00000  Uiso   1.00
O91    O     0.23601   0.58591   0.23974   0.00000  Uiso   1.00
O92    O     0.21343   0.60705   0.21096   0.00000  Uiso   1.00
H188   H     0.19162   0.58373   0.18658   0.00000  Uiso   1.00
H189   H     0.18677   0.41641   0.19144   0.00000  Uiso   1.00
O93    O     0.21111   0.39310   0.21330   0.00000  Uiso   1.00
O94    O     0.23971   0.41427   0.23608   0.00000  Uiso   1.00
H190   H     0.23796   0.45414   0.23207   0.00000  Uiso   1.00
C477   C     0.13428   0.47889   0.13125   0.00000  Uiso   1.00
C478   C     0.12050   0.48943   0.11908   0.00000  Uiso   1.00
C479   C     0.11902   0.51072   0.12057   0.00000  Uiso   1.00
C480   C     0.13120   0.52125   0.13434   0.00000  Uiso   1.00
H191   H     0.13524   0.46252   0.12994   0.00000  Uiso   1.00
O95    O     0.10810   0.47904   0.10541   0.00000  Uiso   1.00
O96    O     0.10536   0.52111   0.10817   0.00000  Uiso   1.00
H192   H     0.12989   0.53762   0.13531   0.00000  Uiso   1.00
C481   C     0.48933   0.82814   0.82772   0.00000  Uiso   1.00
C482   C     0.51096   0.82765   0.82820   0.00000  Uiso   1.00
C483   C     0.52178   0.81469   0.81463   0.00000  Uiso   1.00
C484   C     0.51094   0.80103   0.80181   0.00000  Uiso   1.00
C485   C     0.48930   0.80154   0.80131   0.00000  Uiso   1.00
C486   C     0.47848   0.81449   0.81485   0.00000  Uiso   1.00
C487   C     0.52219   0.78686   0.79007   0.00000  Uiso   1.00
C488   C     0.54336   0.78718   0.78944   0.00000  Uiso   1.00
C489   C     0.55401   0.80170   0.80085   0.00000  Uiso   1.00
C490   C     0.54330   0.81525   0.81315   0.00000  Uiso   1.00
C491   C     0.47913   0.84269   0.83996   0.00000  Uiso   1.00
C492   C     0.48957   0.85516   0.85355   0.00000  Uiso   1.00
C493   C     0.51077   0.85361   0.85509   0.00000  Uiso   1.00
C494   C     0.52119   0.83996   0.84267   0.00000  Uiso   1.00
C495   C     0.45696   0.81305   0.81541   0.00000  Uiso   1.00
C496   C     0.44623   0.80067   0.80196   0.00000  Uiso   1.00
C497   C     0.45686   0.78913   0.78754   0.00000  Uiso   1.00
C498   C     0.47803   0.78970   0.78723   0.00000  Uiso   1.00
C499   C     0.44615   0.77691   0.77369   0.00000  Uiso   1.00
C500   C     0.42500   0.77614   0.77433   0.00000  Uiso   1.00
C501   C     0.41431   0.78765   0.78885   0.00000  Uiso   1.00
C502   C     0.42490   0.79983   0.80259   0.00000  Uiso   1.00
C503   C     0.57533   0.80234   0.79997   0.00000  Uiso   1.00
C504   C     0.58590   0.78853   0.78785   0.00000  Uiso   1.00
C505   C     0.57519   0.77393   0.77644   0.00000  Uiso   1.00
C506   C     0.55404   0.77326   0.77729   0.00000  Uiso   1.00
H193   H     0.51497   0.77495   0.78153   0.00000  Uiso   1.00
H194   H     0.55227   0.82641   0.82101   0.00000  Uiso   1.00
H195   H     0.46300   0.84511   0.83897   0.00000  Uiso   1.00
H196   H     0.53732   0.83898   0.84507   0.00000  Uiso   1.00
H197   H     0.44799   0.82103   0.82650   0.00000  Uiso   1.00
H198   H     0.48523   0.78104   0.77540   0.00000  Uiso   1.00
H199   H     0.45416   0.76791   0.76250   0.00000  Uiso   1.00
O97    O     0.41429   0.76396   0.76072   0.00000  Uiso   1.00
O98    O     0.39315   0.78674   0.78933   0.00000  Uiso   1.00
H200   H     0.41648   0.80864   0.81363   0.00000  Uiso   1.00
H201   H     0.58376   0.81344   0.80869   0.00000  Uiso   1.00
O99    O     0.60705   0.78903   0.78689   0.00000  Uiso   1.00
O100   O     0.58587   0.76029   0.76428   0.00000  Uiso   1.00
H202   H     0.54602   0.76201   0.76837   0.00000  Uiso   1.00
C507   C     0.52135   0.86594   0.86895   0.00000  Uiso   1.00
C508   C     0.51083   0.87972   0.88112   0.00000  Uiso   1.00
C509   C     0.48954   0.88122   0.87963   0.00000  Uiso   1.00
C510   C     0.47901   0.86904   0.86586   0.00000  Uiso   1.00
H203   H     0.53772   0.86496   0.87026   0.00000  Uiso   1.00
O101   O     0.52122   0.89211   0.89479   0.00000  Uiso   1.00
O102   O     0.47915   0.89488   0.89204   0.00000  Uiso   1.00
H204   H     0.46264   0.87035   0.86489   0.00000  Uiso   1.00
C511   C     0.17214   0.51086   0.82787   0.00000  Uiso   1.00
C512   C     0.17229   0.48920   0.82799   0.00000  Uiso   1.00
C513   C     0.18509   0.47838   0.81426   0.00000  Uiso   1.00
C514   C     0.19876   0.48923   0.80153   0.00000  Uiso   1.00
C515   C     0.19828   0.51084   0.80109   0.00000  Uiso   1.00
C516   C     0.18579   0.52167   0.81501   0.00000  Uiso   1.00
C517   C     0.21305   0.47804   0.78991   0.00000  Uiso   1.00
C518   C     0.21270   0.45688   0.78916   0.00000  Uiso   1.00
C519   C     0.19799   0.44621   0.80028   0.00000  Uiso   1.00
C520   C     0.18440   0.45688   0.81256   0.00000  Uiso   1.00
C521   C     0.15785   0.52112   0.84032   0.00000  Uiso   1.00
C522   C     0.14522   0.51066   0.85373   0.00000  Uiso   1.00
C523   C     0.14644   0.48941   0.85493   0.00000  Uiso   1.00
C524   C     0.15987   0.47895   0.84230   0.00000  Uiso   1.00
C525   C     0.18765   0.54315   0.81588   0.00000  Uiso   1.00
C526   C     0.19982   0.55384   0.80221   0.00000  Uiso   1.00
C527   C     0.21053   0.54320   0.78716   0.00000  Uiso   1.00
C528   C     0.20966   0.52205   0.78665   0.00000  Uiso   1.00
C529   C     0.22224   0.55387   0.77289   0.00000  Uiso   1.00
C530   C     0.22346   0.57500   0.77383   0.00000  Uiso   1.00
C531   C     0.21302   0.58568   0.78915   0.00000  Uiso   1.00
C532   C     0.20122   0.57512   0.80322   0.00000  Uiso   1.00
C533   C     0.19724   0.42490   0.79916   0.00000  Uiso   1.00
C534   C     0.21117   0.41436   0.78715   0.00000  Uiso   1.00
C535   C     0.22604   0.42509   0.77616   0.00000  Uiso   1.00
C536   C     0.22679   0.44623   0.77720   0.00000  Uiso   1.00
H205   H     0.22510   0.48536   0.78165   0.00000  Uiso   1.00
H206   H     0.17315   0.44791   0.82027   0.00000  Uiso   1.00
H207   H     0.15573   0.53731   0.83961   0.00000  Uiso   1.00
H208   H     0.16057   0.46277   0.84441   0.00000  Uiso   1.00
H209   H     0.18018   0.55207   0.82736   0.00000  Uiso   1.00
H210   H     0.21764   0.51475   0.77439   0.00000  Uiso   1.00
H211   H     0.23051   0.54586   0.76116   0.00000  Uiso   1.00
O103   O     0.23506   0.58568   0.75973   0.00000  Uiso   1.00
O104   O     0.21458   0.60678   0.79006   0.00000  Uiso   1.00
H212   H     0.19314   0.58354   0.81480   0.00000  Uiso   1.00
H213   H     0.18597   0.41645   0.80763   0.00000  Uiso   1.00
O105   O     0.21054   0.39322   0.78593   0.00000  Uiso   1.00
O106   O     0.23989   0.41443   0.76422   0.00000  Uiso   1.00
H214   H     0.23824   0.45427   0.76858   0.00000  Uiso   1.00
C537   C     0.13400   0.47882   0.86863   0.00000  Uiso   1.00
C538   C     0.12036   0.48936   0.88093   0.00000  Uiso   1.00
C539   C     0.11909   0.51069   0.87970   0.00000  Uiso   1.00
C540   C     0.13145   0.52125   0.86614   0.00000  Uiso   1.00
H215   H     0.13477   0.46242   0.86972   0.00000  Uiso   1.00
O107   O     0.10787   0.47896   0.89447   0.00000  Uiso   1.00
O108   O     0.10548   0.52108   0.89214   0.00000  Uiso   1.00
H216   H     0.13035   0.53764   0.86540   0.00000  Uiso   1.00
C541   C     0.48921   0.19844   0.80111   0.00000  Uiso   1.00
C542   C     0.47840   0.18598   0.81505   0.00000  Uiso   1.00
C543   C     0.48921   0.17239   0.82799   0.00000  Uiso   1.00
C544   C     0.51085   0.17269   0.82835   0.00000  Uiso   1.00
C545   C     0.52170   0.18552   0.81468   0.00000  Uiso   1.00
C546   C     0.51085   0.19889   0.80156   0.00000  Uiso   1.00
C547   C     0.52104   0.16026   0.84275   0.00000  Uiso   1.00
C548   C     0.51054   0.14678   0.85526   0.00000  Uiso   1.00
C549   C     0.48932   0.14547   0.85385   0.00000  Uiso   1.00
C550   C     0.47893   0.15802   0.84032   0.00000  Uiso   1.00
C551   C     0.47795   0.20992   0.78675   0.00000  Uiso   1.00
C552   C     0.45680   0.21080   0.78728   0.00000  Uiso   1.00
C553   C     0.44619   0.19992   0.80219   0.00000  Uiso   1.00
C554   C     0.45691   0.18778   0.81587   0.00000  Uiso   1.00
C555   C     0.52205   0.21279   0.78951   0.00000  Uiso   1.00
C556   C     0.54321   0.21255   0.78896   0.00000  Uiso   1.00
C557   C     0.55391   0.19847   0.80084   0.00000  Uiso   1.00
C558   C     0.54325   0.18516   0.81341   0.00000  Uiso   1.00
C559   C     0.57525   0.19804   0.80017   0.00000  Uiso   1.00
C560   C     0.58577   0.21161   0.78776   0.00000  Uiso   1.00
C561   C     0.57499   0.22569   0.77580   0.00000  Uiso   1.00
C562   C     0.55384   0.22618   0.77646   0.00000  Uiso   1.00
C563   C     0.47870   0.13168   0.86618   0.00000  Uiso   1.00
C564   C     0.48920   0.11938   0.87987   0.00000  Uiso   1.00
C565   C     0.51050   0.12068   0.88126   0.00000  Uiso   1.00
C566   C     0.52108   0.13435   0.86904   0.00000  Uiso   1.00
H217   H     0.53720   0.16092   0.84497   0.00000  Uiso   1.00
H218   H     0.46277   0.15577   0.83939   0.00000  Uiso   1.00
H219   H     0.48514   0.21805   0.77456   0.00000  Uiso   1.00
H220   H     0.44802   0.18032   0.82736   0.00000  Uiso   1.00
H221   H     0.51480   0.22448   0.78069   0.00000  Uiso   1.00
H222   H     0.55231   0.17440   0.82169   0.00000  Uiso   1.00
H223   H     0.58373   0.18730   0.80928   0.00000  Uiso   1.00
O109   O     0.60694   0.21141   0.78711   0.00000  Uiso   1.00
O110   O     0.58562   0.23905   0.76331   0.00000  Uiso   1.00
H224   H     0.54577   0.23708   0.76716   0.00000  Uiso   1.00
H225   H     0.46232   0.13052   0.86529   0.00000  Uiso   1.00
O111   O     0.47876   0.10577   0.89226   0.00000  Uiso   1.00
O112   O     0.52086   0.10821   0.89488   0.00000  Uiso   1.00
H226   H     0.53746   0.13514   0.87026   0.00000  Uiso   1.00
C567   C     0.42489   0.20114   0.80308   0.00000  Uiso   1.00
C568   C     0.41431   0.21306   0.78910   0.00000  Uiso   1.00
C569   C     0.42498   0.22388   0.77407   0.00000  Uiso   1.00
C570   C     0.44610   0.22270   0.77317   0.00000  Uiso   1.00
H227   H     0.41649   0.19282   0.81449   0.00000  Uiso   1.00
O113   O     0.39319   0.21436   0.78985   0.00000  Uiso   1.00
O114   O     0.41429   0.23580   0.76023   0.00000  Uiso   1.00
H228   H     0.45410   0.23118   0.76158   0.00000  Uiso   1.00
C571   C     0.80148   0.51087   0.80096   0.00000  Uiso   1.00
C572   C     0.81402   0.52170   0.81484   0.00000  Uiso   1.00
C573   C     0.82775   0.51090   0.82765   0.00000  Uiso   1.00
C574   C     0.82768   0.48925   0.82774   0.00000  Uiso   1.00
C575   C     0.81492   0.47843   0.81398   0.00000  Uiso   1.00
C576   C     0.80112   0.48924   0.80133   0.00000  Uiso   1.00
C577   C     0.84011   0.47901   0.84207   0.00000  Uiso   1.00
C578   C     0.85350   0.48947   0.85473   0.00000  Uiso   1.00
C579   C     0.85469   0.51072   0.85353   0.00000  Uiso   1.00
C580   C     0.84205   0.52118   0.84011   0.00000  Uiso   1.00
C581   C     0.78992   0.52208   0.78664   0.00000  Uiso   1.00
C582   C     0.78902   0.54324   0.78718   0.00000  Uiso   1.00
C583   C     0.79987   0.55387   0.80214   0.00000  Uiso   1.00
C584   C     0.81213   0.54317   0.81575   0.00000  Uiso   1.00
C585   C     0.78687   0.47801   0.78970   0.00000  Uiso   1.00
C586   C     0.78737   0.45685   0.78888   0.00000  Uiso   1.00
C587   C     0.80225   0.44624   0.79987   0.00000  Uiso   1.00
C588   C     0.81581   0.45695   0.81216   0.00000  Uiso   1.00
C589   C     0.80320   0.42494   0.79864   0.00000  Uiso   1.00
C590   C     0.78926   0.41434   0.78669   0.00000  Uiso   1.00
C591   C     0.77417   0.42499   0.77587   0.00000  Uiso   1.00
C592   C     0.77327   0.44613   0.77697   0.00000  Uiso   1.00
C593   C     0.86843   0.52132   0.86598   0.00000  Uiso   1.00
C594   C     0.88077   0.51077   0.87958   0.00000  Uiso   1.00
C595   C     0.87954   0.48944   0.88082   0.00000  Uiso   1.00
C596   C     0.86594   0.47889   0.86847   0.00000  Uiso   1.00
H229   H     0.83942   0.46282   0.84418   0.00000  Uiso   1.00
H230   H     0.84414   0.53737   0.83941   0.00000  Uiso   1.00
H231   H     0.78182   0.51480   0.77445   0.00000  Uiso   1.00
H232   H     0.81966   0.55209   0.82719   0.00000  Uiso   1.00
H233   H     0.77474   0.48528   0.78149   0.00000  Uiso   1.00
H234   H     0.82719   0.44804   0.81977   0.00000  Uiso   1.00
H235   H     0.81461   0.41655   0.80699   0.00000  Uiso   1.00
O115   O     0.79007   0.39322   0.78540   0.00000  Uiso   1.00
O116   O     0.76027   0.41425   0.76407   0.00000  Uiso   1.00
H236   H     0.76167   0.45412   0.76848   0.00000  Uiso   1.00
H237   H     0.86950   0.53771   0.86524   0.00000  Uiso   1.00
O117   O     0.89436   0.52117   0.89206   0.00000  Uiso   1.00
O118   O     0.89201   0.47904   0.89440   0.00000  Uiso   1.00
H238   H     0.86520   0.46249   0.86956   0.00000  Uiso   1.00
C597   C     0.79854   0.57515   0.80313   0.00000  Uiso   1.00
C598   C     0.78665   0.58573   0.78913   0.00000  Uiso   1.00
C599   C     0.77599   0.57507   0.77394   0.00000  Uiso   1.00
C600   C     0.77718   0.55393   0.77301   0.00000  Uiso   1.00
H239   H     0.80676   0.58356   0.81463   0.00000  Uiso   1.00
O119   O     0.78524   0.60685   0.78998   0.00000  Uiso   1.00
O120   O     0.76425   0.58578   0.75996   0.00000  Uiso   1.00
H240   H     0.76879   0.54594   0.76134   0.00000  Uiso   1.00
C601   C     0.92876   0.95907   0.50157   0.00000  Uiso   1.00
C602   C     0.92333   0.93844   0.50088   0.00000  Uiso   1.00
C603   C     0.93860   0.92317   0.49928   0.00000  Uiso   1.00
C604   C     0.95922   0.92860   0.49854   0.00000  Uiso   1.00
C605   C     0.96395   0.94923   0.49931   0.00000  Uiso   1.00
C606   C     0.94938   0.96380   0.50078   0.00000  Uiso   1.00
C607   C     0.95939   0.98213   0.50113   0.00000  Uiso   1.00
N1     N     0.97984   0.97970   0.50008   0.00000  Uiso   1.00
C608   C     0.98228   0.95924   0.49900   0.00000  Uiso   1.00
N2     N     0.00018   0.94966   0.49841   0.00000  Uiso   1.00
C609   C     0.01807   0.95923   0.49902   0.00000  Uiso   1.00
N3     N     0.02049   0.97969   0.50013   0.00000  Uiso   1.00
C610   C     0.04094   0.98211   0.50123   0.00000  Uiso   1.00
C611   C     0.05096   0.96378   0.50088   0.00000  Uiso   1.00
C612   C     0.03640   0.94921   0.49936   0.00000  Uiso   1.00
N4     N     0.02048   0.02035   0.50019   0.00000  Uiso   1.00
C613   C     0.04093   0.01792   0.50125   0.00000  Uiso   1.00
N5     N     0.05051   0.00001   0.50184   0.00000  Uiso   1.00
C614   C     0.05094   0.03624   0.50093   0.00000  Uiso   1.00
C615   C     0.03637   0.05082   0.49948   0.00000  Uiso   1.00
C616   C     0.01804   0.04081   0.49914   0.00000  Uiso   1.00
C617   C     0.04115   0.92859   0.49852   0.00000  Uiso   1.00
C618   C     0.06178   0.92314   0.49925   0.00000  Uiso   1.00
C619   C     0.07703   0.93840   0.50095   0.00000  Uiso   1.00
C620   C     0.07159   0.95903   0.50170   0.00000  Uiso   1.00
C621   C     0.04111   0.07144   0.49870   0.00000  Uiso   1.00
C622   C     0.06173   0.07687   0.49938   0.00000  Uiso   1.00
C623   C     0.07700   0.06160   0.50095   0.00000  Uiso   1.00
C624   C     0.07157   0.04098   0.50169   0.00000  Uiso   1.00
N6     N     0.97983   0.02036   0.50015   0.00000  Uiso   1.00
C625   C     0.98225   0.04082   0.49911   0.00000  Uiso   1.00
N7     N     0.00014   0.05039   0.49855   0.00000  Uiso   1.00
C626   C     0.96391   0.05084   0.49944   0.00000  Uiso   1.00
C627   C     0.94936   0.03627   0.50089   0.00000  Uiso   1.00
C628   C     0.95937   0.01794   0.50120   0.00000  Uiso   1.00
C629   C     0.92873   0.04102   0.50169   0.00000  Uiso   1.00
C630   C     0.92328   0.06165   0.50099   0.00000  Uiso   1.00
C631   C     0.93854   0.07691   0.49939   0.00000  Uiso   1.00
C632   C     0.95916   0.07147   0.49867   0.00000  Uiso   1.00
N8     N     0.94981   0.00004   0.50175   0.00000  Uiso   1.00
H241   H     0.91734   0.97082   0.50274   0.00000  Uiso   1.00
O121   O     0.90299   0.93270   0.50176   0.00000  Uiso   1.00
O122   O     0.93286   0.90282   0.49846   0.00000  Uiso   1.00
H242   H     0.97097   0.91718   0.49739   0.00000  Uiso   1.00
H243   H     0.02941   0.91717   0.49729   0.00000  Uiso   1.00
O123   O     0.06753   0.90279   0.49831   0.00000  Uiso   1.00
O124   O     0.09738   0.93265   0.50187   0.00000  Uiso   1.00
H244   H     0.08300   0.97078   0.50293   0.00000  Uiso   1.00
H245   H     0.02936   0.08287   0.49754   0.00000  Uiso   1.00
O125   O     0.06747   0.09722   0.49850   0.00000  Uiso   1.00
O126   O     0.09735   0.06734   0.50176   0.00000  Uiso   1.00
H246   H     0.08299   0.02922   0.50283   0.00000  Uiso   1.00
H247   H     0.91732   0.02927   0.50285   0.00000  Uiso   1.00
O127   O     0.90293   0.06739   0.50185   0.00000  Uiso   1.00
O128   O     0.93278   0.09726   0.49853   0.00000  Uiso   1.00
H248   H     0.97090   0.08289   0.49750   0.00000  Uiso   1.00
Ni1    Ni    0.00016   0.00003   0.50014   0.00000  Uiso   1.00
C633   C     0.49833   0.07168   0.95932   0.00000  Uiso   1.00
C634   C     0.49899   0.07711   0.93871   0.00000  Uiso   1.00
C635   C     0.50061   0.06184   0.92344   0.00000  Uiso   1.00
C636   C     0.50139   0.04122   0.92887   0.00000  Uiso   1.00
C637   C     0.50066   0.03648   0.94949   0.00000  Uiso   1.00
C638   C     0.49918   0.05105   0.96406   0.00000  Uiso   1.00
C639   C     0.49892   0.04104   0.98238   0.00000  Uiso   1.00
N9     N     0.50003   0.02059   0.97994   0.00000  Uiso   1.00
C640   C     0.50106   0.01815   0.95949   0.00000  Uiso   1.00
N10    N     0.50170   0.00025   0.94991   0.00000  Uiso   1.00
C641   C     0.50116   0.98235   0.95948   0.00000  Uiso   1.00
N11    N     0.50009   0.97993   0.97992   0.00000  Uiso   1.00
C642   C     0.49903   0.95946   0.98233   0.00000  Uiso   1.00
C643   C     0.49937   0.94945   0.96400   0.00000  Uiso   1.00
C644   C     0.50086   0.96402   0.94946   0.00000  Uiso   1.00
N12    N     0.50015   0.97993   0.02055   0.00000  Uiso   1.00
C645   C     0.49911   0.95947   0.01812   0.00000  Uiso   1.00
N13    N     0.49849   0.94989   0.00022   0.00000  Uiso   1.00
C646   C     0.49948   0.94946   0.03644   0.00000  Uiso   1.00
C647   C     0.50093   0.96404   0.05100   0.00000  Uiso   1.00
C648   C     0.50123   0.98237   0.04100   0.00000  Uiso   1.00
C649   C     0.50171   0.95928   0.92884   0.00000  Uiso   1.00
C650   C     0.50101   0.93865   0.92338   0.00000  Uiso   1.00
C651   C     0.49931   0.92339   0.93861   0.00000  Uiso   1.00
C652   C     0.49856   0.92882   0.95923   0.00000  Uiso   1.00
C653   C     0.50173   0.95931   0.07162   0.00000  Uiso   1.00
C654   C     0.50103   0.93869   0.07706   0.00000  Uiso   1.00
C655   C     0.49945   0.92341   0.06180   0.00000  Uiso   1.00
C656   C     0.49873   0.92883   0.04118   0.00000  Uiso   1.00
N14    N     0.50010   0.02059   0.02057   0.00000  Uiso   1.00
C657   C     0.50119   0.01817   0.04102   0.00000  Uiso   1.00
N15    N     0.50180   0.00027   0.05058   0.00000  Uiso   1.00
C658   C     0.50086   0.03650   0.05104   0.00000  Uiso   1.00
C659   C     0.49938   0.05107   0.03649   0.00000  Uiso   1.00
C660   C     0.49902   0.04105   0.01816   0.00000  Uiso   1.00
C661   C     0.49859   0.07170   0.04124   0.00000  Uiso   1.00
C662   C     0.49932   0.07714   0.06186   0.00000  Uiso   1.00
C663   C     0.50093   0.06187   0.07711   0.00000  Uiso   1.00
C664   C     0.50165   0.04125   0.07166   0.00000  Uiso   1.00
N16    N     0.49837   0.05063   0.00027   0.00000  Uiso   1.00
H249   H     0.49716   0.08310   0.97107   0.00000  Uiso   1.00
O129   O     0.49808   0.09746   0.93297   0.00000  Uiso   1.00
O130   O     0.50145   0.06757   0.90310   0.00000  Uiso   1.00
H250   H     0.50257   0.02946   0.91746   0.00000  Uiso   1.00
H251   H     0.50293   0.97103   0.91744   0.00000  Uiso   1.00
O131   O     0.50197   0.93291   0.90304   0.00000  Uiso   1.00
O132   O     0.49839   0.90304   0.93284   0.00000  Uiso   1.00
H252   H     0.49735   0.91740   0.97096   0.00000  Uiso   1.00
H253   H     0.50287   0.97107   0.08304   0.00000  Uiso   1.00
O133   O     0.50187   0.93296   0.09740   0.00000  Uiso   1.00
O134   O     0.49862   0.90306   0.06754   0.00000  Uiso   1.00
H254   H     0.49758   0.91740   0.02944   0.00000  Uiso   1.00
H255   H     0.49742   0.08312   0.02950   0.00000  Uiso   1.00
O135   O     0.49846   0.09749   0.06761   0.00000  Uiso   1.00
O136   O     0.50176   0.06761   0.09745   0.00000  Uiso   1.00
H256   H     0.50283   0.02949   0.08306   0.00000  Uiso   1.00
Ni2    Ni    0.50009   0.00026   0.00025   0.00000  Uiso   1.00
C665   C     0.92855   0.50183   0.04091   0.00000  Uiso   1.00
C666   C     0.92312   0.50118   0.06152   0.00000  Uiso   1.00
C667   C     0.93838   0.49959   0.07679   0.00000  Uiso   1.00
C668   C     0.95900   0.49882   0.07136   0.00000  Uiso   1.00
C669   C     0.96374   0.49953   0.05074   0.00000  Uiso   1.00
C670   C     0.94917   0.50098   0.03618   0.00000  Uiso   1.00
C671   C     0.95918   0.50124   0.01786   0.00000  Uiso   1.00
N17    N     0.97963   0.50015   0.02029   0.00000  Uiso   1.00
C672   C     0.98206   0.49914   0.04074   0.00000  Uiso   1.00
N18    N    -0.00004   0.49852   0.05032   0.00000  Uiso   1.00
C673   C     0.01786   0.49905   0.04076   0.00000  Uiso   1.00
N19    N     0.02028   0.50011   0.02031   0.00000  Uiso   1.00
C674   C     0.04074   0.50116   0.01790   0.00000  Uiso   1.00
C675   C     0.05075   0.50084   0.03623   0.00000  Uiso   1.00
C676   C     0.03619   0.49937   0.05078   0.00000  Uiso   1.00
N20    N     0.02027   0.50006   0.97968   0.00000  Uiso   1.00
C677   C     0.04073   0.50109   0.98211   0.00000  Uiso   1.00
N21    N     0.05031   0.50171   0.00001   0.00000  Uiso   1.00
C678   C     0.05073   0.50073   0.96379   0.00000  Uiso   1.00
C679   C     0.03616   0.49930   0.94922   0.00000  Uiso   1.00
C680   C     0.01784   0.49900   0.95923   0.00000  Uiso   1.00
C681   C     0.04094   0.49854   0.07140   0.00000  Uiso   1.00
C682   C     0.06156   0.49925   0.07685   0.00000  Uiso   1.00
C683   C     0.07682   0.50094   0.06161   0.00000  Uiso   1.00
C684   C     0.07138   0.50166   0.04099   0.00000  Uiso   1.00
C685   C     0.04089   0.49853   0.92860   0.00000  Uiso   1.00
C686   C     0.06151   0.49923   0.92317   0.00000  Uiso   1.00
C687   C     0.07678   0.50077   0.93844   0.00000  Uiso   1.00
C688   C     0.07136   0.50148   0.95905   0.00000  Uiso   1.00
N22    N     0.97962   0.50009   0.97966   0.00000  Uiso   1.00
C689   C     0.98204   0.49903   0.95921   0.00000  Uiso   1.00
N23    N    -0.00007   0.49844   0.94965   0.00000  Uiso   1.00
C690   C     0.96371   0.49936   0.94919   0.00000  Uiso   1.00
C691   C     0.94915   0.50080   0.96375   0.00000  Uiso   1.00
C692   C     0.95916   0.50114   0.98207   0.00000  Uiso   1.00
C693   C     0.92852   0.50157   0.95900   0.00000  Uiso   1.00
C694   C     0.92308   0.50086   0.93838   0.00000  Uiso   1.00
C695   C     0.93834   0.49930   0.92313   0.00000  Uiso   1.00
C696   C     0.95897   0.49859   0.92857   0.00000  Uiso   1.00
N24    N     0.94959   0.50178  -0.00004   0.00000  Uiso   1.00
H257   H     0.91712   0.50297   0.02916   0.00000  Uiso   1.00
O137   O     0.90277   0.50209   0.06726   0.00000  Uiso   1.00
O138   O     0.93265   0.49878   0.09713   0.00000  Uiso   1.00
H258   H     0.97075   0.49767   0.08278   0.00000  Uiso   1.00
H259   H     0.02919   0.49733   0.08280   0.00000  Uiso   1.00
O139   O     0.06731   0.49830   0.09719   0.00000  Uiso   1.00
O140   O     0.09716   0.50187   0.06738   0.00000  Uiso   1.00
H260   H     0.08279   0.50287   0.02926   0.00000  Uiso   1.00
H261   H     0.02913   0.49740   0.91719   0.00000  Uiso   1.00
O141   O     0.06724   0.49841   0.90283   0.00000  Uiso   1.00
O142   O     0.09713   0.50160   0.93270   0.00000  Uiso   1.00
H262   H     0.08278   0.50261   0.97080   0.00000  Uiso   1.00
H263   H     0.91710   0.50271   0.97074   0.00000  Uiso   1.00
O143   O     0.90273   0.50170   0.93263   0.00000  Uiso   1.00
O144   O     0.93260   0.49849   0.90278   0.00000  Uiso   1.00
H264   H     0.97072   0.49745   0.91716   0.00000  Uiso   1.00
Ni3    Ni   -0.00005   0.50010  -0.00002   0.00000  Uiso   1.00
Zn1    Zn    0.23164   0.23126   0.38916   0.00000  Uiso   1.00
Zn2    Zn    0.76831   0.23123   0.38908   0.00000  Uiso   1.00
Zn3    Zn    0.76891   0.76890   0.38880   0.00000  Uiso   1.00
Zn4    Zn    0.23161   0.76870   0.38892   0.00000  Uiso   1.00
Zn5    Zn    0.23147   0.76848   0.61131   0.00000  Uiso   1.00
Zn6    Zn    0.23134   0.23130   0.61143   0.00000  Uiso   1.00
Zn7    Zn    0.76893   0.23193   0.61115   0.00000  Uiso   1.00
Zn8    Zn    0.76892   0.76847   0.61107   0.00000  Uiso   1.00
Zn9    Zn    0.38898   0.23168   0.23157   0.00000  Uiso   1.00
Zn10   Zn    0.76881   0.38897   0.23119   0.00000  Uiso   1.00
Zn11   Zn    0.61135   0.76885   0.23141   0.00000  Uiso   1.00
Zn12   Zn    0.23098   0.61146   0.23148   0.00000  Uiso   1.00
Zn13   Zn    0.38875   0.76911   0.76889   0.00000  Uiso   1.00
Zn14   Zn    0.23139   0.38889   0.76880   0.00000  Uiso   1.00
Zn15   Zn    0.61121   0.23142   0.76899   0.00000  Uiso   1.00
Zn16   Zn    0.76854   0.61127   0.76880   0.00000  Uiso   1.00
Zn17   Zn    0.23153   0.38872   0.23096   0.00000  Uiso   1.00
Zn18   Zn    0.23110   0.61117   0.76874   0.00000  Uiso   1.00
Zn19   Zn    0.38880   0.23136   0.76889   0.00000  Uiso   1.00
Zn20   Zn    0.76901   0.38876   0.76855   0.00000  Uiso   1.00
Zn21   Zn    0.61142   0.76855   0.76930   0.00000  Uiso   1.00
Zn22   Zn    0.76886   0.61140   0.23136   0.00000  Uiso   1.00
Zn23   Zn    0.38906   0.76908   0.23153   0.00000  Uiso   1.00
Zn24   Zn    0.61144   0.23120   0.23170   0.00000  Uiso   1.00
Zn25   Zn    0.09463   0.09450   0.50012   0.00000  Uiso   1.00
Zn26   Zn    0.90562   0.09456   0.50019   0.00000  Uiso   1.00
Zn27   Zn    0.90570   0.90554   0.50013   0.00000  Uiso   1.00
Zn28   Zn    0.09469   0.90549   0.50009   0.00000  Uiso   1.00
Zn29   Zn    0.50010   0.09478   0.09477   0.00000  Uiso   1.00
Zn30   Zn    0.90548   0.50042   0.09441   0.00000  Uiso   1.00
Zn31   Zn    0.50023   0.90578   0.09470   0.00000  Uiso   1.00
Zn32   Zn    0.09447   0.50008   0.09452   0.00000  Uiso   1.00
Zn33   Zn    0.50019   0.90575   0.90569   0.00000  Uiso   1.00
Zn34   Zn    0.09441   0.50001   0.90554   0.00000  Uiso   1.00
Zn35   Zn    0.49978   0.09474   0.90582   0.00000  Uiso   1.00
Zn36   Zn    0.90544   0.50010   0.90548   0.00000  Uiso   1.00
loop_
_geom_bond_atom_site_label_1
_geom_bond_atom_site_label_2
_geom_bond_distance
_geom_bond_site_symmetry_2
_ccdc_geom_bond_type
C1     C2      1.429   .     A
C1     C6      1.430   .     A
C1     C11     1.422   .     A
C2     C3      1.431   .     A
C2     C14     1.424   .     A
C3     C4      1.426   .     A
C3     C10     1.424   .     A
C4     C5      1.426   .     A
C4     C7      1.421   .     A
C5     C6      1.425   .     A
C5     C18     1.422   .     A
C6     C15     1.423   .     A
C7     C8      1.395   .     A
C7     H1      1.077   .     S
C8     C9      1.404   .     A
C8     C26     1.407   .     A
C9     C10     1.398   .     A
C9     C23     1.407   .     A
C10    H2      1.074   .     S
C11    C12     1.395   .     A
C11    H3      1.074   .     S
C12    C13     1.403   .     A
C12    C30     1.407   .     A
C13    C14     1.397   .     A
C13    C27     1.408   .     A
C14    H4      1.074   .     S
C15    C16     1.397   .     A
C15    H5      1.074   .     S
C16    C17     1.404   .     A
C16    C22     1.407   .     A
C17    C18     1.396   .     A
C17    C19     1.407   .     A
C18    H6      1.077   .     S
C19    C20     1.397   .     A
C19    H7      1.084   .     S
C20    C21     1.410   .     A
C20    O1      1.396   .     S
C21    C22     1.396   .     A
C21    O2      1.395   .     S
C22    H8      1.084   .     S
C23    C24     1.397   .     A
C23    H9      1.084   .     S
C24    C25     1.410   .     A
C24    O3      1.395   .     S
C25    C26     1.396   .     A
C25    O4      1.395   .     S
C26    H10     1.084   .     S
O1     Zn17    1.802   .     S
O2     Zn17    1.800   .     S
O3     Zn9     1.802   .     S
O4     Zn9     1.801   .     S
C27    C28     1.397   .     A
C27    H11     1.084   .     S
C28    C29     1.410   .     A
C28    O5      1.396   .     S
C29    C30     1.396   .     A
C29    O6      1.395   .     S
C30    H12     1.084   .     S
O5     Zn1     1.802   .     S
O6     Zn1     1.800   .     S
C31    C32     1.429   .     A
C31    C36     1.430   .     A
C31    C41     1.422   .     A
C32    C33     1.430   .     A
C32    C44     1.423   .     A
C33    C34     1.426   .     A
C33    C40     1.423   .     A
C34    C35     1.425   .     A
C34    C37     1.421   .     A
C35    C36     1.425   .     A
C35    C48     1.421   .     A
C36    C45     1.423   .     A
C37    C38     1.395   .     A
C37    H13     1.078   .     S
C38    C39     1.404   .     A
C38    C56     1.407   .     A
C39    C40     1.397   .     A
C39    C53     1.407   .     A
C40    H14     1.075   .     S
C41    C42     1.395   .     A
C41    H15     1.074   .     S
C42    C43     1.403   .     A
C42    C60     1.407   .     A
C43    C44     1.397   .     A
C43    C57     1.408   .     A
C44    H16     1.074   .     S
C45    C46     1.397   .     A
C45    H17     1.074   .     S
C46    C47     1.404   .     A
C46    C52     1.407   .     A
C47    C48     1.396   .     A
C47    C49     1.407   .     A
C48    H18     1.078   .     S
C49    C50     1.397   .     A
C49    H19     1.084   .     S
C50    C51     1.410   .     A
C50    O7      1.396   .     S
C51    C52     1.396   .     A
C51    O8      1.395   .     S
C52    H20     1.084   .     S
C53    C54     1.397   .     A
C53    H21     1.084   .     S
C54    C55     1.410   .     A
C54    O9      1.395   .     S
C55    C56     1.396   .     A
C55    O10     1.395   .     S
C56    H22     1.084   .     S
O7     Zn2     1.802   .     S
O8     Zn2     1.800   .     S
O9     Zn24    1.801   .     S
O10    Zn24    1.801   .     S
C57    C58     1.397   .     A
C57    H23     1.084   .     S
C58    C59     1.410   .     A
C58    O11     1.395   .     S
C59    C60     1.396   .     A
C59    O12     1.395   .     S
C60    H24     1.084   .     S
O11    Zn10    1.802   .     S
O12    Zn10    1.800   .     S
C61    C62     1.425   .     A
C61    C66     1.427   .     A
C61    C71     1.421   .     A
C62    C63     1.426   .     A
C62    C74     1.421   .     A
C63    C64     1.425   .     A
C63    C70     1.421   .     A
C64    C65     1.426   .     A
C64    C67     1.421   .     A
C65    C66     1.425   .     A
C65    C78     1.421   .     A
C66    C75     1.421   .     A
C67    C68     1.397   .     A
C67    H25     1.077   .     S
C68    C69     1.405   .     A
C68    C86     1.406   .     A
C69    C70     1.397   .     A
C69    C83     1.406   .     A
C70    H26     1.077   .     S
C71    C72     1.397   .     A
C71    H27     1.077   .     S
C72    C73     1.405   .     A
C72    C90     1.406   .     A
C73    C74     1.396   .     A
C73    C87     1.407   .     A
C74    H28     1.077   .     S
C75    C76     1.397   .     A
C75    H29     1.077   .     S
C76    C77     1.405   .     A
C76    C82     1.407   .     A
C77    C78     1.397   .     A
C77    C79     1.406   .     A
C78    H30     1.077   .     S
C79    C80     1.396   .     A
C79    H31     1.084   .     S
C80    C81     1.410   .     A
C80    O13     1.395   .     S
C81    C82     1.396   .     A
C81    O14     1.395   .     S
C82    H32     1.084   .     S
C83    C84     1.396   .     A
C83    H33     1.084   .     S
C84    C85     1.410   .     A
C84    O15     1.395   .     S
C85    C86     1.396   .     A
C85    O16     1.395   .     S
C86    H34     1.084   .     S
O13    Zn3     1.801   .     S
O14    Zn3     1.801   .     S
O15    Zn22    1.801   .     S
O16    Zn22    1.801   .     S
C87    C88     1.396   .     A
C87    H35     1.084   .     S
C88    C89     1.410   .     A
C88    O17     1.395   .     S
C89    C90     1.396   .     A
C89    O18     1.395   .     S
C90    H36     1.084   .     S
O17    Zn11    1.801   .     S
O18    Zn11    1.801   .     S
C91    C92     1.428   .     A
C91    C96     1.430   .     A
C91    C101    1.422   .     A
C92    C93     1.430   .     A
C92    C104    1.423   .     A
C93    C94     1.427   .     A
C93    C100    1.424   .     A
C94    C95     1.426   .     A
C94    C97     1.421   .     A
C95    C96     1.426   .     A
C95    C108    1.422   .     A
C96    C105    1.423   .     A
C97    C98     1.395   .     A
C97    H37     1.077   .     S
C98    C99     1.404   .     A
C98    C116    1.407   .     A
C99    C100    1.397   .     A
C99    C113    1.408   .     A
C100   H38     1.075   .     S
C101   C102    1.395   .     A
C101   H39     1.075   .     S
C102   C103    1.403   .     A
C102   C120    1.407   .     A
C103   C104    1.397   .     A
C103   C117    1.408   .     A
C104   H40     1.075   .     S
C105   C106    1.396   .     A
C105   H41     1.075   .     S
C106   C107    1.404   .     A
C106   C112    1.407   .     A
C107   C108    1.396   .     A
C107   C109    1.407   .     A
C108   H42     1.077   .     S
C109   C110    1.397   .     A
C109   H43     1.084   .     S
C110   C111    1.410   .     A
C110   O19     1.396   .     S
C111   C112    1.396   .     A
C111   O20     1.395   .     S
C112   H44     1.084   .     S
C113   C114    1.397   .     A
C113   H45     1.084   .     S
C114   C115    1.410   .     A
C114   O21     1.396   .     S
C115   C116    1.396   .     A
C115   O22     1.396   .     S
C116   H46     1.084   .     S
O19    Zn12    1.802   .     S
O20    Zn12    1.800   .     S
O21    Zn4     1.802   .     S
O22    Zn4     1.801   .     S
C117   C118    1.397   .     A
C117   H47     1.084   .     S
C118   C119    1.410   .     A
C118   O23     1.396   .     S
C119   C120    1.396   .     A
C119   O24     1.395   .     S
C120   H48     1.084   .     S
O23    Zn23    1.803   .     S
O24    Zn23    1.800   .     S
C121   C122    1.426   .     A
C121   C126    1.429   .     A
C121   C131    1.423   .     A
C122   C123    1.427   .     A
C122   C134    1.422   .     A
C123   C124    1.427   .     A
C123   C130    1.421   .     A
C124   C125    1.430   .     A
C124   C127    1.423   .     A
C125   C126    1.428   .     A
C125   C138    1.423   .     A
C126   C135    1.422   .     A
C127   C128    1.397   .     A
C127   H49     1.075   .     S
C128   C129    1.404   .     A
C128   C146    1.408   .     A
C129   C130    1.396   .     A
C129   C143    1.407   .     A
C130   H50     1.077   .     S
C131   C132    1.396   .     A
C131   H51     1.075   .     S
C132   C133    1.404   .     A
C132   C150    1.407   .     A
C133   C134    1.396   .     A
C133   C147    1.407   .     A
C134   H52     1.077   .     S
C135   C136    1.396   .     A
C135   H53     1.075   .     S
C136   C137    1.404   .     A
C136   C142    1.407   .     A
C137   C138    1.397   .     A
C137   C139    1.408   .     A
C138   H54     1.075   .     S
C139   C140    1.397   .     A
C139   H55     1.084   .     S
C140   C141    1.410   .     A
C140   O25     1.396   .     S
C141   C142    1.396   .     A
C141   O26     1.395   .     S
C142   H56     1.084   .     S
C143   C144    1.396   .     A
C143   H57     1.084   .     S
C144   C145    1.410   .     A
C144   O27     1.396   .     S
C145   C146    1.397   .     A
C145   O28     1.396   .     S
C146   H58     1.084   .     S
O25    Zn18    1.802   .     S
O26    Zn18    1.800   .     S
O27    Zn5     1.801   .     S
O28    Zn5     1.802   .     S
C147   C148    1.397   .     A
C147   H59     1.084   .     S
C148   C149    1.410   .     A
C148   O29     1.396   .     S
C149   C150    1.396   .     A
C149   O30     1.395   .     S
C150   H60     1.084   .     S
O29    Zn13    1.802   .     S
O30    Zn13    1.801   .     S
C151   C152    1.425   .     A
C151   C156    1.426   .     A
C151   C161    1.421   .     A
C152   C153    1.426   .     A
C152   C164    1.421   .     A
C153   C154    1.425   .     A
C153   C160    1.421   .     A
C154   C155    1.427   .     A
C154   C157    1.421   .     A
C155   C156    1.425   .     A
C155   C168    1.421   .     A
C156   C165    1.421   .     A
C157   C158    1.397   .     A
C157   H61     1.077   .     S
C158   C159    1.405   .     A
C158   C176    1.406   .     A
C159   C160    1.396   .     A
C159   C173    1.407   .     A
C160   H62     1.077   .     S
C161   C162    1.397   .     A
C161   H63     1.077   .     S
C162   C163    1.405   .     A
C162   C180    1.407   .     A
C163   C164    1.397   .     A
C163   C177    1.406   .     A
C164   H64     1.077   .     S
C165   C166    1.397   .     A
C165   H65     1.077   .     S
C166   C167    1.405   .     A
C166   C172    1.406   .     A
C167   C168    1.397   .     A
C167   C169    1.407   .     A
C168   H66     1.077   .     S
C169   C170    1.396   .     A
C169   H67     1.084   .     S
C170   C171    1.410   .     A
C170   O31     1.395   .     S
C171   C172    1.396   .     A
C171   O32     1.395   .     S
C172   H68     1.084   .     S
C173   C174    1.396   .     A
C173   H69     1.084   .     S
C174   C175    1.410   .     A
C174   O33     1.395   .     S
C175   C176    1.396   .     A
C175   O34     1.395   .     S
C176   H70     1.084   .     S
O31    Zn6     1.801   .     S
O32    Zn6     1.801   .     S
O33    Zn14    1.801   .     S
O34    Zn14    1.800   .     S
C177   C178    1.396   .     A
C177   H71     1.084   .     S
C178   C179    1.410   .     A
C178   O35     1.395   .     S
C179   C180    1.396   .     A
C179   O36     1.395   .     S
C180   H72     1.084   .     S
O35    Zn19    1.801   .     S
O36    Zn19    1.801   .     S
C181   C182    1.429   .     A
C181   C186    1.430   .     A
C181   C191    1.423   .     A
C182   C183    1.430   .     A
C182   C194    1.422   .     A
C183   C184    1.425   .     A
C183   C190    1.423   .     A
C184   C185    1.425   .     A
C184   C187    1.421   .     A
C185   C186    1.425   .     A
C185   C198    1.421   .     A
C186   C195    1.423   .     A
C187   C188    1.396   .     A
C187   H73     1.078   .     S
C188   C189    1.404   .     A
C188   C206    1.407   .     A
C189   C190    1.397   .     A
C189   C203    1.407   .     A
C190   H74     1.075   .     S
C191   C192    1.397   .     A
C191   H75     1.075   .     S
C192   C193    1.403   .     A
C192   C210    1.408   .     A
C193   C194    1.395   .     A
C193   C207    1.407   .     A
C194   H76     1.075   .     S
C195   C196    1.398   .     A
C195   H77     1.075   .     S
C196   C197    1.404   .     A
C196   C202    1.407   .     A
C197   C198    1.395   .     A
C197   C199    1.406   .     A
C198   H78     1.078   .     S
C199   C200    1.396   .     A
C199   H79     1.084   .     S
C200   C201    1.410   .     A
C200   O37     1.395   .     S
C201   C202    1.397   .     A
C201   O38     1.395   .     S
C202   H80     1.084   .     S
C203   C204    1.396   .     A
C203   H81     1.084   .     S
C204   C205    1.410   .     A
C204   O39     1.395   .     S
C205   C206    1.397   .     A
C205   O40     1.396   .     S
C206   H82     1.084   .     S
O37    Zn20    1.800   .     S
O38    Zn20    1.801   .     S
O39    Zn7     1.800   .     S
O40    Zn7     1.802   .     S
C207   C208    1.396   .     A
C207   H83     1.084   .     S
C208   C209    1.410   .     A
C208   O41     1.395   .     S
C209   C210    1.397   .     A
C209   O42     1.395   .     S
C210   H84     1.084   .     S
O41    Zn15    1.800   .     S
O42    Zn15    1.802   .     S
C211   C212    1.425   .     A
C211   C216    1.430   .     A
C211   C221    1.423   .     A
C212   C213    1.425   .     A
C212   C224    1.422   .     A
C213   C214    1.426   .     A
C213   C220    1.421   .     A
C214   C215    1.431   .     A
C214   C217    1.424   .     A
C215   C216    1.430   .     A
C215   C228    1.424   .     A
C216   C225    1.422   .     A
C217   C218    1.398   .     A
C217   H85     1.074   .     S
C218   C219    1.404   .     A
C218   C236    1.407   .     A
C219   C220    1.395   .     A
C219   C233    1.407   .     A
C220   H86     1.077   .     S
C221   C222    1.397   .     A
C221   H87     1.074   .     S
C222   C223    1.404   .     A
C222   C240    1.407   .     A
C223   C224    1.396   .     A
C223   C237    1.407   .     A
C224   H88     1.077   .     S
C225   C226    1.395   .     A
C225   H89     1.074   .     S
C226   C227    1.403   .     A
C226   C232    1.407   .     A
C227   C228    1.397   .     A
C227   C229    1.408   .     A
C228   H90     1.074   .     S
C229   C230    1.397   .     A
C229   H91     1.084   .     S
C230   C231    1.410   .     A
C230   O43     1.396   .     S
C231   C232    1.395   .     A
C231   O44     1.395   .     S
C232   H92     1.084   .     S
C233   C234    1.396   .     A
C233   H93     1.084   .     S
C234   C235    1.410   .     A
C234   O45     1.395   .     S
C235   C236    1.397   .     A
C235   O46     1.395   .     S
C236   H94     1.084   .     S
O43    Zn8     1.802   .     S
O44    Zn8     1.800   .     S
O45    Zn16    1.801   .     S
O46    Zn16    1.801   .     S
C237   C238    1.397   .     A
C237   H95     1.084   .     S
C238   C239    1.410   .     A
C238   O47     1.396   .     S
C239   C240    1.396   .     A
C239   O48     1.395   .     S
C240   H96     1.084   .     S
O47    Zn21    1.802   .     S
O48    Zn21    1.800   .     S
C241   C242    1.427   .     A
C241   C246    1.428   .     A
C241   C251    1.421   .     A
C242   C243    1.428   .     A
C242   C254    1.422   .     A
C243   C244    1.425   .     A
C243   C250    1.422   .     A
C244   C245    1.426   .     A
C244   C247    1.420   .     A
C245   C246    1.425   .     A
C245   C258    1.420   .     A
C246   C255    1.422   .     A
C247   C248    1.396   .     A
C247   H97     1.077   .     S
C248   C249    1.405   .     A
C248   C266    1.406   .     A
C249   C250    1.398   .     A
C249   C263    1.407   .     A
C250   H98     1.077   .     S
C251   C252    1.396   .     A
C251   H99     1.077   .     S
C252   C253    1.405   .     A
C252   C270    1.407   .     A
C253   C254    1.397   .     A
C253   C267    1.407   .     A
C254   H100    1.077   .     S
C255   C256    1.398   .     A
C255   H101    1.077   .     S
C256   C257    1.405   .     A
C256   C262    1.407   .     A
C257   C258    1.396   .     A
C257   C259    1.406   .     A
C258   H102    1.077   .     S
C259   C260    1.396   .     A
C259   H103    1.084   .     S
C260   C261    1.410   .     A
C260   O49     1.395   .     S
C261   C262    1.397   .     A
C261   O50     1.396   .     S
C262   H104    1.084   .     S
C263   C264    1.397   .     A
C263   H105    1.084   .     S
C264   C265    1.410   .     A
C264   O51     1.396   .     S
C265   C266    1.396   .     A
C265   O52     1.395   .     S
C266   H106    1.084   .     S
O49    Zn6     1.800   .     S
O50    Zn6     1.802   .     S
O51    Zn1     1.802   .     S
O52    Zn1     1.800   .     S
C267   C268    1.396   .     A
C267   H107    1.084   .     S
C268   C269    1.410   .     A
C268   O53     1.395   .     S
C269   C270    1.396   .     A
C269   O54     1.395   .     S
C270   H108    1.084   .     S
O53    Zn25    1.801   .     S
O54    Zn25    1.800   .     S
C271   C272    1.425   .     A
C271   C276    1.425   .     A
C271   C281    1.420   .     A
C272   C273    1.428   .     A
C272   C284    1.422   .     A
C273   C274    1.427   .     A
C273   C280    1.421   .     A
C274   C275    1.428   .     A
C274   C277    1.421   .     A
C275   C276    1.425   .     A
C275   C288    1.422   .     A
C276   C285    1.420   .     A
C277   C278    1.397   .     A
C277   H109    1.077   .     S
C278   C279    1.405   .     A
C278   C296    1.407   .     A
C279   C280    1.397   .     A
C279   C293    1.407   .     A
C280   H110    1.077   .     S
C281   C282    1.396   .     A
C281   H111    1.078   .     S
C282   C283    1.405   .     A
C282   C300    1.406   .     A
C283   C284    1.398   .     A
C283   C297    1.407   .     A
C284   H112    1.077   .     S
C285   C286    1.396   .     A
C285   H113    1.078   .     S
C286   C287    1.405   .     A
C286   C292    1.406   .     A
C287   C288    1.398   .     A
C287   C289    1.407   .     A
C288   H114    1.077   .     S
C289   C290    1.397   .     A
C289   H115    1.084   .     S
C290   C291    1.410   .     A
C290   O55     1.396   .     S
C291   C292    1.396   .     A
C291   O56     1.395   .     S
C292   H116    1.084   .     S
C293   C294    1.396   .     A
C293   H117    1.084   .     S
C294   C295    1.410   .     A
C294   O57     1.395   .     S
C295   C296    1.396   .     A
C295   O58     1.395   .     S
C296   H118    1.084   .     S
O55    Zn7     1.802   .     S
O56    Zn7     1.800   .     S
O57    Zn26    1.801   .     S
O58    Zn26    1.801   .     S
C297   C298    1.397   .     A
C297   H119    1.084   .     S
C298   C299    1.410   .     A
C298   O59     1.396   .     S
C299   C300    1.396   .     A
C299   O60     1.395   .     S
C300   H120    1.084   .     S
O59    Zn2     1.802   .     S
O60    Zn2     1.800   .     S
C301   C302    1.425   .     A
C301   C306    1.426   .     A
C301   C311    1.420   .     A
C302   C303    1.428   .     A
C302   C314    1.422   .     A
C303   C304    1.427   .     A
C303   C310    1.422   .     A
C304   C305    1.427   .     A
C304   C307    1.421   .     A
C305   C306    1.425   .     A
C305   C318    1.422   .     A
C306   C315    1.421   .     A
C307   C308    1.396   .     A
C307   H121    1.077   .     S
C308   C309    1.405   .     A
C308   C326    1.407   .     A
C309   C310    1.397   .     A
C309   C323    1.407   .     A
C310   H122    1.076   .     S
C311   C312    1.395   .     A
C311   H123    1.077   .     S
C312   C313    1.405   .     A
C312   C330    1.406   .     A
C313   C314    1.398   .     A
C313   C327    1.407   .     A
C314   H124    1.076   .     S
C315   C316    1.396   .     A
C315   H125    1.077   .     S
C316   C317    1.405   .     A
C316   C322    1.406   .     A
C317   C318    1.397   .     A
C317   C319    1.407   .     A
C318   H126    1.077   .     S
C319   C320    1.397   .     A
C319   H127    1.084   .     S
C320   C321    1.410   .     A
C320   O61     1.396   .     S
C321   C322    1.396   .     A
C321   O62     1.395   .     S
C322   H128    1.084   .     S
C323   C324    1.396   .     A
C323   H129    1.084   .     S
C324   C325    1.410   .     A
C324   O63     1.395   .     S
C325   C326    1.396   .     A
C325   O64     1.395   .     S
C326   H130    1.084   .     S
O61    Zn3     1.802   .     S
O62    Zn3     1.800   .     S
O63    Zn27    1.801   .     S
O64    Zn27    1.800   .     S
C327   C328    1.397   .     A
C327   H131    1.084   .     S
C328   C329    1.410   .     A
C328   O65     1.396   .     S
C329   C330    1.396   .     A
C329   O66     1.395   .     S
C330   H132    1.084   .     S
O65    Zn8     1.802   .     S
O66    Zn8     1.800   .     S
C331   C332    1.427   .     A
C331   C336    1.428   .     A
C331   C341    1.421   .     A
C332   C333    1.428   .     A
C332   C344    1.422   .     A
C333   C334    1.426   .     A
C333   C340    1.422   .     A
C334   C335    1.427   .     A
C334   C337    1.421   .     A
C335   C336    1.425   .     A
C335   C348    1.421   .     A
C336   C345    1.422   .     A
C337   C338    1.396   .     A
C337   H133    1.077   .     S
C338   C339    1.405   .     A
C338   C356    1.406   .     A
C339   C340    1.398   .     A
C339   C353    1.407   .     A
C340   H134    1.076   .     S
C341   C342    1.397   .     A
C341   H135    1.077   .     S
C342   C343    1.405   .     A
C342   C360    1.407   .     A
C343   C344    1.397   .     A
C343   C357    1.407   .     A
C344   H136    1.076   .     S
C345   C346    1.398   .     A
C345   H137    1.077   .     S
C346   C347    1.405   .     A
C346   C352    1.407   .     A
C347   C348    1.396   .     A
C347   C349    1.406   .     A
C348   H138    1.077   .     S
C349   C350    1.396   .     A
C349   H139    1.084   .     S
C350   C351    1.410   .     A
C350   O67     1.395   .     S
C351   C352    1.397   .     A
C351   O68     1.396   .     S
C352   H140    1.084   .     S
C353   C354    1.397   .     A
C353   H141    1.084   .     S
C354   C355    1.410   .     A
C354   O69     1.396   .     S
C355   C356    1.396   .     A
C355   O70     1.395   .     S
C356   H142    1.084   .     S
O67    Zn4     1.800   .     S
O68    Zn4     1.803   .     S
O69    Zn5     1.803   .     S
O70    Zn5     1.800   .     S
C357   C358    1.396   .     A
C357   H143    1.084   .     S
C358   C359    1.410   .     A
C358   O71     1.395   .     S
C359   C360    1.396   .     A
C359   O72     1.395   .     S
C360   H144    1.084   .     S
O71    Zn28    1.801   .     S
O72    Zn28    1.801   .     S
C361   C362    1.425   .     A
C361   C366    1.426   .     A
C361   C371    1.420   .     A
C362   C363    1.428   .     A
C362   C374    1.422   .     A
C363   C364    1.427   .     A
C363   C370    1.421   .     A
C364   C365    1.427   .     A
C364   C367    1.421   .     A
C365   C366    1.425   .     A
C365   C378    1.422   .     A
C366   C375    1.420   .     A
C367   C368    1.396   .     A
C367   H145    1.077   .     S
C368   C369    1.405   .     A
C368   C386    1.407   .     A
C369   C370    1.397   .     A
C369   C383    1.407   .     A
C370   H146    1.077   .     S
C371   C372    1.396   .     A
C371   H147    1.077   .     S
C372   C373    1.405   .     A
C372   C390    1.406   .     A
C373   C374    1.397   .     A
C373   C387    1.407   .     A
C374   H148    1.077   .     S
C375   C376    1.396   .     A
C375   H149    1.077   .     S
C376   C377    1.405   .     A
C376   C382    1.406   .     A
C377   C378    1.397   .     A
C377   C379    1.407   .     A
C378   H150    1.077   .     S
C379   C380    1.397   .     A
C379   H151    1.084   .     S
C380   C381    1.410   .     A
C380   O73     1.396   .     S
C381   C382    1.396   .     A
C381   O74     1.395   .     S
C382   H152    1.084   .     S
C383   C384    1.396   .     A
C383   H153    1.084   .     S
C384   C385    1.410   .     A
C384   O75     1.395   .     S
C385   C386    1.396   .     A
C385   O76     1.395   .     S
C386   H154    1.084   .     S
O73    Zn24    1.802   .     S
O74    Zn24    1.800   .     S
O75    Zn29    1.801   .     S
O76    Zn29    1.800   .     S
C387   C388    1.397   .     A
C387   H155    1.084   .     S
C388   C389    1.410   .     A
C388   O77     1.396   .     S
C389   C390    1.396   .     A
C389   O78     1.395   .     S
C390   H156    1.084   .     S
O77    Zn9     1.802   .     S
O78    Zn9     1.800   .     S
C391   C392    1.425   .     A
C391   C396    1.426   .     A
C391   C401    1.421   .     A
C392   C393    1.427   .     A
C392   C404    1.422   .     A
C393   C394    1.427   .     A
C393   C400    1.421   .     A
C394   C395    1.429   .     A
C394   C397    1.422   .     A
C395   C396    1.426   .     A
C395   C408    1.423   .     A
C396   C405    1.421   .     A
C397   C398    1.397   .     A
C397   H157    1.076   .     S
C398   C399    1.405   .     A
C398   C416    1.407   .     A
C399   C400    1.396   .     A
C399   C413    1.407   .     A
C400   H158    1.077   .     S
C401   C402    1.396   .     A
C401   H159    1.077   .     S
C402   C403    1.405   .     A
C402   C420    1.406   .     A
C403   C404    1.397   .     A
C403   C417    1.407   .     A
C404   H160    1.077   .     S
C405   C406    1.395   .     A
C405   H161    1.077   .     S
C406   C407    1.404   .     A
C406   C412    1.406   .     A
C407   C408    1.397   .     A
C407   C409    1.407   .     A
C408   H162    1.076   .     S
C409   C410    1.397   .     A
C409   H163    1.084   .     S
C410   C411    1.410   .     A
C410   O79     1.396   .     S
C411   C412    1.395   .     A
C411   O80     1.395   .     S
C412   H164    1.084   .     S
C413   C414    1.396   .     A
C413   H165    1.084   .     S
C414   C415    1.410   .     A
C414   O81     1.395   .     S
C415   C416    1.396   .     A
C415   O82     1.395   .     S
C416   H166    1.084   .     S
O79    Zn10    1.802   .     S
O80    Zn10    1.799   .     S
O81    Zn30    1.801   .     S
O82    Zn30    1.801   .     S
C417   C418    1.397   .     A
C417   H167    1.084   .     S
C418   C419    1.410   .     A
C418   O83     1.396   .     S
C419   C420    1.395   .     A
C419   O84     1.395   .     S
C420   H168    1.084   .     S
O83    Zn22    1.802   .     S
O84    Zn22    1.799   .     S
C421   C422    1.427   .     A
C421   C426    1.428   .     A
C421   C431    1.421   .     A
C422   C423    1.428   .     A
C422   C434    1.421   .     A
C423   C424    1.425   .     A
C423   C430    1.422   .     A
C424   C425    1.425   .     A
C424   C427    1.420   .     A
C425   C426    1.425   .     A
C425   C438    1.420   .     A
C426   C435    1.422   .     A
C427   C428    1.396   .     A
C427   H169    1.077   .     S
C428   C429    1.405   .     A
C428   C446    1.406   .     A
C429   C430    1.397   .     A
C429   C443    1.407   .     A
C430   H170    1.077   .     S
C431   C432    1.397   .     A
C431   H171    1.077   .     S
C432   C433    1.405   .     A
C432   C450    1.407   .     A
C433   C434    1.396   .     A
C433   C447    1.407   .     A
C434   H172    1.077   .     S
C435   C436    1.398   .     A
C435   H173    1.077   .     S
C436   C437    1.405   .     A
C436   C442    1.407   .     A
C437   C438    1.396   .     A
C437   C439    1.406   .     A
C438   H174    1.077   .     S
C439   C440    1.396   .     A
C439   H175    1.084   .     S
C440   C441    1.410   .     A
C440   O85     1.395   .     S
C441   C442    1.397   .     A
C441   O86     1.396   .     S
C442   H176    1.084   .     S
C443   C444    1.397   .     A
C443   H177    1.084   .     S
C444   C445    1.410   .     A
C444   O87     1.396   .     S
C445   C446    1.396   .     A
C445   O88     1.395   .     S
C446   H178    1.084   .     S
O85    Zn23    1.800   .     S
O86    Zn23    1.803   .     S
O87    Zn11    1.802   .     S
O88    Zn11    1.800   .     S
C447   C448    1.396   .     A
C447   H179    1.084   .     S
C448   C449    1.410   .     A
C448   O89     1.395   .     S
C449   C450    1.396   .     A
C449   O90     1.395   .     S
C450   H180    1.084   .     S
O89    Zn31    1.801   .     S
O90    Zn31    1.801   .     S
C451   C452    1.426   .     A
C451   C456    1.428   .     A
C451   C461    1.422   .     A
C452   C453    1.428   .     A
C452   C464    1.422   .     A
C453   C454    1.426   .     A
C453   C460    1.422   .     A
C454   C455    1.427   .     A
C454   C457    1.421   .     A
C455   C456    1.426   .     A
C455   C468    1.421   .     A
C456   C465    1.422   .     A
C457   C458    1.396   .     A
C457   H181    1.076   .     S
C458   C459    1.404   .     A
C458   C476    1.407   .     A
C459   C460    1.397   .     A
C459   C473    1.407   .     A
C460   H182    1.076   .     S
C461   C462    1.397   .     A
C461   H183    1.077   .     S
C462   C463    1.405   .     A
C462   C480    1.407   .     A
C463   C464    1.397   .     A
C463   C477    1.407   .     A
C464   H184    1.076   .     S
C465   C466    1.397   .     A
C465   H185    1.077   .     S
C466   C467    1.405   .     A
C466   C472    1.407   .     A
C467   C468    1.396   .     A
C467   C469    1.407   .     A
C468   H186    1.076   .     S
C469   C470    1.396   .     A
C469   H187    1.084   .     S
C470   C471    1.410   .     A
C470   O91     1.395   .     S
C471   C472    1.397   .     A
C471   O92     1.396   .     S
C472   H188    1.084   .     S
C473   C474    1.397   .     A
C473   H189    1.084   .     S
C474   C475    1.410   .     A
C474   O93     1.396   .     S
C475   C476    1.396   .     A
C475   O94     1.395   .     S
C476   H190    1.084   .     S
O91    Zn12    1.800   .     S
O92    Zn12    1.802   .     S
O93    Zn17    1.802   .     S
O94    Zn17    1.800   .     S
C477   C478    1.396   .     A
C477   H191    1.084   .     S
C478   C479    1.410   .     A
C478   O95     1.395   .     S
C479   C480    1.396   .     A
C479   O96     1.395   .     S
C480   H192    1.084   .     S
O95    Zn32    1.801   .     S
O96    Zn32    1.801   .     S
C481   C482    1.426   .     A
C481   C486    1.428   .     A
C481   C491    1.422   .     A
C482   C483    1.428   .     A
C482   C494    1.422   .     A
C483   C484    1.426   .     A
C483   C490    1.422   .     A
C484   C485    1.427   .     A
C484   C487    1.421   .     A
C485   C486    1.426   .     A
C485   C498    1.421   .     A
C486   C495    1.422   .     A
C487   C488    1.396   .     A
C487   H193    1.076   .     S
C488   C489    1.404   .     A
C488   C506    1.406   .     A
C489   C490    1.397   .     A
C489   C503    1.407   .     A
C490   H194    1.077   .     S
C491   C492    1.397   .     A
C491   H195    1.076   .     S
C492   C493    1.405   .     A
C492   C510    1.407   .     A
C493   C494    1.397   .     A
C493   C507    1.407   .     A
C494   H196    1.077   .     S
C495   C496    1.397   .     A
C495   H197    1.076   .     S
C496   C497    1.404   .     A
C496   C502    1.407   .     A
C497   C498    1.396   .     A
C497   C499    1.407   .     A
C498   H198    1.076   .     S
C499   C500    1.396   .     A
C499   H199    1.084   .     S
C500   C501    1.410   .     A
C500   O97     1.395   .     S
C501   C502    1.397   .     A
C501   O98     1.396   .     S
C502   H200    1.084   .     S
C503   C504    1.397   .     A
C503   H201    1.084   .     S
C504   C505    1.410   .     A
C504   O99     1.396   .     S
C505   C506    1.396   .     A
C505   O100    1.395   .     S
C506   H202    1.084   .     S
O97    Zn13    1.800   .     S
O98    Zn13    1.802   .     S
O99    Zn21    1.802   .     S
O100   Zn21    1.800   .     S
C507   C508    1.396   .     A
C507   H203    1.084   .     S
C508   C509    1.410   .     A
C508   O101    1.395   .     S
C509   C510    1.396   .     A
C509   O102    1.395   .     S
C510   H204    1.084   .     S
O101   Zn33    1.801   .     S
O102   Zn33    1.801   .     S
C511   C512    1.427   .     A
C511   C516    1.428   .     A
C511   C521    1.421   .     A
C512   C513    1.428   .     A
C512   C524    1.421   .     A
C513   C514    1.425   .     A
C513   C520    1.422   .     A
C514   C515    1.425   .     A
C514   C517    1.420   .     A
C515   C516    1.424   .     A
C515   C528    1.420   .     A
C516   C525    1.422   .     A
C517   C518    1.396   .     A
C517   H205    1.078   .     S
C518   C519    1.405   .     A
C518   C536    1.406   .     A
C519   C520    1.398   .     A
C519   C533    1.407   .     A
C520   H206    1.077   .     S
C521   C522    1.397   .     A
C521   H207    1.077   .     S
C522   C523    1.405   .     A
C522   C540    1.407   .     A
C523   C524    1.397   .     A
C523   C537    1.407   .     A
C524   H208    1.077   .     S
C525   C526    1.398   .     A
C525   H209    1.077   .     S
C526   C527    1.405   .     A
C526   C532    1.407   .     A
C527   C528    1.396   .     A
C527   C529    1.406   .     A
C528   H210    1.078   .     S
C529   C530    1.396   .     A
C529   H211    1.084   .     S
C530   C531    1.410   .     A
C530   O103    1.395   .     S
C531   C532    1.397   .     A
C531   O104    1.396   .     S
C532   H212    1.084   .     S
C533   C534    1.397   .     A
C533   H213    1.084   .     S
C534   C535    1.410   .     A
C534   O105    1.396   .     S
C535   C536    1.396   .     A
C535   O106    1.395   .     S
C536   H214    1.084   .     S
O103   Zn18    1.800   .     S
O104   Zn18    1.802   .     S
O105   Zn14    1.802   .     S
O106   Zn14    1.800   .     S
C537   C538    1.396   .     A
C537   H215    1.084   .     S
C538   C539    1.410   .     A
C538   O107    1.395   .     S
C539   C540    1.396   .     A
C539   O108    1.395   .     S
C540   H216    1.084   .     S
O107   Zn34    1.801   .     S
O108   Zn34    1.801   .     S
C541   C542    1.425   .     A
C541   C546    1.427   .     A
C541   C551    1.421   .     A
C542   C543    1.427   .     A
C542   C554    1.422   .     A
C543   C544    1.427   .     A
C543   C550    1.421   .     A
C544   C545    1.429   .     A
C544   C547    1.422   .     A
C545   C546    1.426   .     A
C545   C558    1.423   .     A
C546   C555    1.421   .     A
C547   C548    1.397   .     A
C547   H217    1.076   .     S
C548   C549    1.405   .     A
C548   C566    1.407   .     A
C549   C550    1.396   .     A
C549   C563    1.407   .     A
C550   H218    1.077   .     S
C551   C552    1.396   .     A
C551   H219    1.077   .     S
C552   C553    1.405   .     A
C552   C570    1.406   .     A
C553   C554    1.397   .     A
C553   C567    1.407   .     A
C554   H220    1.077   .     S
C555   C556    1.395   .     A
C555   H221    1.077   .     S
C556   C557    1.404   .     A
C556   C562    1.406   .     A
C557   C558    1.397   .     A
C557   C559    1.407   .     A
C558   H222    1.076   .     S
C559   C560    1.397   .     A
C559   H223    1.084   .     S
C560   C561    1.410   .     A
C560   O109    1.396   .     S
C561   C562    1.395   .     A
C561   O110    1.395   .     S
C562   H224    1.084   .     S
C563   C564    1.396   .     A
C563   H225    1.084   .     S
C564   C565    1.410   .     A
C564   O111    1.395   .     S
C565   C566    1.396   .     A
C565   O112    1.395   .     S
C566   H226    1.084   .     S
O109   Zn15    1.802   .     S
O110   Zn15    1.799   .     S
O111   Zn35    1.801   .     S
O112   Zn35    1.801   .     S
C567   C568    1.397   .     A
C567   H227    1.084   .     S
C568   C569    1.410   .     A
C568   O113    1.396   .     S
C569   C570    1.396   .     A
C569   O114    1.395   .     S
C570   H228    1.084   .     S
O113   Zn19    1.802   .     S
O114   Zn19    1.799   .     S
C571   C572    1.425   .     A
C571   C576    1.425   .     A
C571   C581    1.420   .     A
C572   C573    1.427   .     A
C572   C584    1.422   .     A
C573   C574    1.427   .     A
C573   C580    1.421   .     A
C574   C575    1.427   .     A
C574   C577    1.421   .     A
C575   C576    1.425   .     A
C575   C588    1.422   .     A
C576   C585    1.420   .     A
C577   C578    1.396   .     A
C577   H229    1.077   .     S
C578   C579    1.405   .     A
C578   C596    1.407   .     A
C579   C580    1.397   .     A
C579   C593    1.407   .     A
C580   H230    1.077   .     S
C581   C582    1.396   .     A
C581   H231    1.078   .     S
C582   C583    1.405   .     A
C582   C600    1.406   .     A
C583   C584    1.397   .     A
C583   C597    1.407   .     A
C584   H232    1.077   .     S
C585   C586    1.396   .     A
C585   H233    1.077   .     S
C586   C587    1.405   .     A
C586   C592    1.406   .     A
C587   C588    1.397   .     A
C587   C589    1.407   .     A
C588   H234    1.077   .     S
C589   C590    1.397   .     A
C589   H235    1.084   .     S
C590   C591    1.410   .     A
C590   O115    1.396   .     S
C591   C592    1.396   .     A
C591   O116    1.395   .     S
C592   H236    1.084   .     S
C593   C594    1.396   .     A
C593   H237    1.084   .     S
C594   C595    1.410   .     A
C594   O117    1.395   .     S
C595   C596    1.396   .     A
C595   O118    1.395   .     S
C596   H238    1.084   .     S
O115   Zn20    1.801   .     S
O116   Zn20    1.800   .     S
O117   Zn36    1.801   .     S
O118   Zn36    1.800   .     S
C597   C598    1.397   .     A
C597   H239    1.084   .     S
C598   C599    1.410   .     A
C598   O119    1.396   .     S
C599   C600    1.396   .     A
C599   O120    1.395   .     S
C600   H240    1.084   .     S
O119   Zn16    1.802   .     S
O120   Zn16    1.800   .     S
C601   C602    1.406   .     A
C601   C606    1.396   .     A
C601   H241    1.083   .     S
C602   C603    1.427   .     A
C602   O121    1.395   .     S
C603   C604    1.406   .     A
C603   O122    1.395   .     S
C604   C605    1.396   .     A
C604   H242    1.083   .     S
C605   C606    1.361   .     A
C605   C608    1.377   .     A
C606   C607    1.377   .     A
C607   N1      1.359   .     A
C607   N8      1.339   1_565 A
N1     C608    1.360   .     A
N1     Ni1     1.894   1_665 S
C608   N2      1.338   1_655 A
N2     C608    1.338   1_455 A
N2     C609    1.339   .     A
C609   N3      1.359   .     A
C609   C612    1.377   .     A
N3     C610    1.360   .     A
N3     Ni1     1.894   1_565 S
C610   C611    1.377   .     A
C610   N5      1.338   1_565 A
C611   C612    1.361   .     A
C611   C620    1.396   .     A
C612   C617    1.396   .     A
N4     C613    1.360   .     A
N4     C616    1.359   .     A
N4     Ni1     1.894   .     S
C613   N5      1.338   .     A
C613   C614    1.377   .     A
N5     C610    1.338   1_545 A
C614   C615    1.361   .     A
C614   C624    1.396   .     A
C615   C616    1.377   .     A
C615   C621    1.396   .     A
C616   N7      1.339   .     A
C617   C618    1.406   .     A
C617   H243    1.083   .     S
C618   C619    1.427   .     A
C618   O123    1.395   .     S
C619   C620    1.406   .     A
C619   O124    1.395   .     S
C620   H244    1.083   .     S
C621   C622    1.406   .     A
C621   H245    1.083   .     S
C622   C623    1.427   .     A
C622   O125    1.395   .     S
C623   C624    1.406   .     A
C623   O126    1.395   .     S
C624   H246    1.083   .     S
N6     C625    1.359   .     A
N6     C628    1.359   .     A
N6     Ni1     1.895   1_655 S
C625   N7      1.338   1_655 A
C625   C626    1.377   .     A
N7     C625    1.338   1_455 A
C626   C627    1.361   .     A
C626   C632    1.396   .     A
C627   C628    1.377   .     A
C627   C629    1.396   .     A
C628   N8      1.338   .     A
C629   C630    1.406   .     A
C629   H247    1.083   .     S
C630   C631    1.427   .     A
C630   O127    1.395   .     S
C631   C632    1.406   .     A
C631   O128    1.395   .     S
C632   H248    1.083   .     S
N8     C607    1.339   1_545 A
O121   Zn27    1.802   .     S
O122   Zn27    1.802   .     S
O123   Zn28    1.802   .     S
O124   Zn28    1.802   .     S
O125   Zn25    1.802   .     S
O126   Zn25    1.802   .     S
O127   Zn26    1.802   .     S
O128   Zn26    1.803   .     S
Ni1    N6      1.895   1_455 S
Ni1    N3      1.894   1_545 S
Ni1    N1      1.894   1_445 S
C633   C634    1.406   .     A
C633   C638    1.396   .     A
C633   H249    1.083   .     S
C634   C635    1.427   .     A
C634   O129    1.395   .     S
C635   C636    1.406   .     A
C635   O130    1.395   .     S
C636   C637    1.396   .     A
C636   H250    1.083   .     S
C637   C638    1.361   .     A
C637   C640    1.377   .     A
C638   C639    1.377   .     A
C639   N9      1.359   .     A
C639   N16     1.338   1_556 A
N9     C640    1.359   .     A
N9     Ni2     1.895   1_556 S
C640   N10     1.338   .     A
N10    C641    1.339   1_545 A
C641   N10     1.339   1_565 A
C641   N11     1.359   .     A
C641   C644    1.377   .     A
N11    C642    1.360   .     A
N11    Ni2     1.894   1_566 S
C642   C643    1.377   .     A
C642   N13     1.338   1_556 A
C643   C644    1.361   .     A
C643   C652    1.396   .     A
C644   C649    1.396   .     A
N12    C645    1.360   .     A
N12    C648    1.359   .     A
N12    Ni2     1.894   1_565 S
C645   N13     1.339   .     A
C645   C646    1.377   .     A
N13    C642    1.338   1_554 A
C646   C647    1.361   .     A
C646   C656    1.396   .     A
C647   C648    1.377   .     A
C647   C653    1.396   .     A
C648   N15     1.339   1_565 A
C649   C650    1.406   .     A
C649   H251    1.083   .     S
C650   C651    1.427   .     A
C650   O131    1.395   .     S
C651   C652    1.407   .     A
C651   O132    1.395   .     S
C652   H252    1.083   .     S
C653   C654    1.406   .     A
C653   H253    1.083   .     S
C654   C655    1.427   .     A
C654   O133    1.395   .     S
C655   C656    1.406   .     A
C655   O134    1.395   .     S
C656   H254    1.083   .     S
N14    C657    1.360   .     A
N14    C660    1.359   .     A
N14    Ni2     1.894   .     S
C657   N15     1.338   .     A
C657   C658    1.377   .     A
N15    C648    1.339   1_545 A
C658   C659    1.361   .     A
C658   C664    1.396   .     A
C659   C660    1.377   .     A
C659   C661    1.396   .     A
C660   N16     1.339   .     A
C661   C662    1.406   .     A
C661   H255    1.083   .     S
C662   C663    1.427   .     A
C662   O135    1.395   .     S
C663   C664    1.406   .     A
C663   O136    1.395   .     S
C664   H256    1.083   .     S
N16    C639    1.338   1_554 A
O129   Zn35    1.802   .     S
O130   Zn35    1.802   .     S
O131   Zn33    1.803   .     S
O132   Zn33    1.803   .     S
O133   Zn31    1.803   .     S
O134   Zn31    1.802   .     S
O135   Zn29    1.802   .     S
O136   Zn29    1.802   .     S
Ni2    N12     1.894   1_545 S
Ni2    N9      1.895   1_554 S
Ni2    N11     1.894   1_544 S
C665   C666    1.406   .     A
C665   C670    1.396   .     A
C665   H257    1.083   .     S
C666   C667    1.427   .     A
C666   O137    1.395   .     S
C667   C668    1.406   .     A
C667   O138    1.395   .     S
C668   C669    1.396   .     A
C668   H258    1.083   .     S
C669   C670    1.361   .     A
C669   C672    1.377   .     A
C670   C671    1.377   .     A
C671   N17     1.359   .     A
C671   N24     1.338   .     A
N17    C672    1.359   .     A
N17    Ni3     1.895   1_655 S
C672   N18     1.339   1_655 A
N18    C672    1.339   1_455 A
N18    C673    1.339   .     A
C673   N19     1.359   .     A
C673   C676    1.377   .     A
N19    C674    1.360   .     A
N19    Ni3     1.895   .     S
C674   C675    1.377   .     A
C674   N21     1.339   .     A
C675   C676    1.361   .     A
C675   C684    1.396   .     A
C676   C681    1.396   .     A
N20    C677    1.360   .     A
N20    C680    1.359   .     A
N20    Ni3     1.894   1_556 S
C677   N21     1.338   1_556 A
C677   C678    1.377   .     A
N21    C677    1.338   1_554 A
C678   C679    1.361   .     A
C678   C688    1.396   .     A
C679   C680    1.377   .     A
C679   C685    1.396   .     A
C680   N23     1.338   .     A
C681   C682    1.406   .     A
C681   H259    1.083   .     S
C682   C683    1.427   .     A
C682   O139    1.395   .     S
C683   C684    1.407   .     A
C683   O140    1.395   .     S
C684   H260    1.083   .     S
C685   C686    1.406   .     A
C685   H261    1.083   .     S
C686   C687    1.427   .     A
C686   O141    1.395   .     S
C687   C688    1.406   .     A
C687   O142    1.395   .     S
C688   H262    1.083   .     S
N22    C689    1.360   .     A
N22    C692    1.359   .     A
N22    Ni3     1.895   1_656 S
C689   N23     1.338   1_655 A
C689   C690    1.377   .     A
N23    C689    1.338   1_455 A
C690   C691    1.361   .     A
C690   C696    1.396   .     A
C691   C692    1.377   .     A
C691   C693    1.396   .     A
C692   N24     1.338   1_556 A
C693   C694    1.406   .     A
C693   H263    1.083   .     S
C694   C695    1.427   .     A
C694   O143    1.395   .     S
C695   C696    1.406   .     A
C695   O144    1.395   .     S
C696   H264    1.083   .     S
N24    C692    1.338   1_554 A
O137   Zn30    1.803   .     S
O138   Zn30    1.802   .     S
O139   Zn32    1.803   .     S
O140   Zn32    1.803   .     S
O141   Zn34    1.803   .     S
O142   Zn34    1.802   .     S
O143   Zn36    1.802   .     S
O144   Zn36    1.802   .     S
Ni3    N17     1.895   1_455 S
Ni3    N20     1.894   1_554 S
Ni3    N22     1.895   1_454 S
