data_tfe-B_O-PcMN_O-Zntet
_audit_creation_date              2021-11-06
_audit_creation_method            'Materials Studio'
_symmetry_space_group_name_H-M    'P1'
_symmetry_Int_Tables_number       1
_symmetry_cell_setting            triclinic
loop_
_symmetry_equiv_pos_as_xyz
  x,y,z
_cell_length_a                    38.4168
_cell_length_b                    38.4165
_cell_length_c                    38.4165
_cell_angle_alpha                 90.0000
_cell_angle_beta                  90.0000
_cell_angle_gamma                 90.0000
loop_
_atom_site_label
_atom_site_type_symbol
_atom_site_fract_x
_atom_site_fract_y
_atom_site_fract_z
_atom_site_U_iso_or_equiv
_atom_site_adp_type
_atom_site_occupancy
C1     C     0.34251   0.32108   0.37014   0.00000  Uiso   1.00
C2     C     0.36826   0.32108   0.34439   0.00000  Uiso   1.00
C3     C     0.36826   0.34711   0.31837   0.00000  Uiso   1.00
C4     C     0.34251   0.37286   0.31837   0.00000  Uiso   1.00
C5     C     0.31649   0.37286   0.34440   0.00000  Uiso   1.00
C6     C     0.31649   0.34710   0.37015   0.00000  Uiso   1.00
O1     O     0.34284   0.29618   0.39660   0.00000  Uiso   1.00
O2     O     0.39473   0.29619   0.34471   0.00000  Uiso   1.00
O3     O     0.39472   0.34744   0.29348   0.00000  Uiso   1.00
O4     O     0.34284   0.39933   0.29348   0.00000  Uiso   1.00
O5     O     0.29160   0.39932   0.34473   0.00000  Uiso   1.00
O6     O     0.29160   0.34743   0.39661   0.00000  Uiso   1.00
C7     C     0.65882   0.37286   0.31837   0.00000  Uiso   1.00
C8     C     0.63307   0.34711   0.31837   0.00000  Uiso   1.00
C9     C     0.63307   0.32109   0.34439   0.00000  Uiso   1.00
C10    C     0.65882   0.32108   0.37014   0.00000  Uiso   1.00
C11    C     0.68484   0.34711   0.37014   0.00000  Uiso   1.00
C12    C     0.68484   0.37286   0.34440   0.00000  Uiso   1.00
O7     O     0.65850   0.39933   0.29348   0.00000  Uiso   1.00
O8     O     0.60661   0.34744   0.29347   0.00000  Uiso   1.00
O9     O     0.60660   0.29619   0.34471   0.00000  Uiso   1.00
O10    O     0.65849   0.29619   0.39660   0.00000  Uiso   1.00
O11    O     0.70973   0.34743   0.39661   0.00000  Uiso   1.00
O12    O     0.70974   0.39932   0.34473   0.00000  Uiso   1.00
C13    C     0.65882   0.68944   0.37015   0.00000  Uiso   1.00
C14    C     0.63307   0.68944   0.34440   0.00000  Uiso   1.00
C15    C     0.63308   0.66341   0.31838   0.00000  Uiso   1.00
C16    C     0.65883   0.63767   0.31838   0.00000  Uiso   1.00
C17    C     0.68485   0.63767   0.34440   0.00000  Uiso   1.00
C18    C     0.68485   0.66341   0.37015   0.00000  Uiso   1.00
O13    O     0.65849   0.71433   0.39662   0.00000  Uiso   1.00
O14    O     0.60661   0.71433   0.34473   0.00000  Uiso   1.00
O15    O     0.60661   0.66309   0.29349   0.00000  Uiso   1.00
O16    O     0.65850   0.61120   0.29348   0.00000  Uiso   1.00
O17    O     0.70974   0.61120   0.34473   0.00000  Uiso   1.00
O18    O     0.70974   0.66309   0.39662   0.00000  Uiso   1.00
C19    C     0.34251   0.63767   0.31838   0.00000  Uiso   1.00
C20    C     0.36826   0.66342   0.31838   0.00000  Uiso   1.00
C21    C     0.36826   0.68944   0.34440   0.00000  Uiso   1.00
C22    C     0.34251   0.68944   0.37015   0.00000  Uiso   1.00
C23    C     0.31649   0.66342   0.37015   0.00000  Uiso   1.00
C24    C     0.31649   0.63767   0.34440   0.00000  Uiso   1.00
O19    O     0.34284   0.61121   0.29349   0.00000  Uiso   1.00
O20    O     0.39472   0.66309   0.29349   0.00000  Uiso   1.00
O21    O     0.39473   0.71433   0.34473   0.00000  Uiso   1.00
O22    O     0.34284   0.71434   0.39662   0.00000  Uiso   1.00
O23    O     0.29160   0.66309   0.39662   0.00000  Uiso   1.00
O24    O     0.29159   0.61121   0.34473   0.00000  Uiso   1.00
C25    C     0.34251   0.63766   0.68674   0.00000  Uiso   1.00
C26    C     0.36826   0.66340   0.68674   0.00000  Uiso   1.00
C27    C     0.36826   0.68943   0.66072   0.00000  Uiso   1.00
C28    C     0.34251   0.68943   0.63497   0.00000  Uiso   1.00
C29    C     0.31649   0.66341   0.63497   0.00000  Uiso   1.00
C30    C     0.31649   0.63766   0.66071   0.00000  Uiso   1.00
O25    O     0.34284   0.61119   0.71163   0.00000  Uiso   1.00
O26    O     0.39473   0.66307   0.71163   0.00000  Uiso   1.00
O27    O     0.39473   0.71432   0.66039   0.00000  Uiso   1.00
O28    O     0.34284   0.71433   0.60850   0.00000  Uiso   1.00
O29    O     0.29160   0.66308   0.60850   0.00000  Uiso   1.00
O30    O     0.29159   0.61120   0.66038   0.00000  Uiso   1.00
C31    C     0.36826   0.34710   0.68673   0.00000  Uiso   1.00
C32    C     0.34251   0.37285   0.68672   0.00000  Uiso   1.00
C33    C     0.31649   0.37284   0.66070   0.00000  Uiso   1.00
C34    C     0.31649   0.34709   0.63495   0.00000  Uiso   1.00
C35    C     0.34251   0.32107   0.63495   0.00000  Uiso   1.00
C36    C     0.36826   0.32107   0.66070   0.00000  Uiso   1.00
O31    O     0.39473   0.34743   0.71162   0.00000  Uiso   1.00
O32    O     0.34284   0.39931   0.71162   0.00000  Uiso   1.00
O33    O     0.29160   0.39931   0.66037   0.00000  Uiso   1.00
O34    O     0.29160   0.34742   0.60849   0.00000  Uiso   1.00
O35    O     0.34284   0.29618   0.60849   0.00000  Uiso   1.00
O36    O     0.39473   0.29618   0.66038   0.00000  Uiso   1.00
C37    C     0.65882   0.37285   0.68672   0.00000  Uiso   1.00
C38    C     0.63307   0.34710   0.68673   0.00000  Uiso   1.00
C39    C     0.63307   0.32107   0.66070   0.00000  Uiso   1.00
C40    C     0.65882   0.32107   0.63495   0.00000  Uiso   1.00
C41    C     0.68485   0.34710   0.63495   0.00000  Uiso   1.00
C42    C     0.68485   0.37284   0.66070   0.00000  Uiso   1.00
O37    O     0.65850   0.39931   0.71162   0.00000  Uiso   1.00
O38    O     0.60661   0.34743   0.71162   0.00000  Uiso   1.00
O39    O     0.60661   0.29618   0.66037   0.00000  Uiso   1.00
O40    O     0.65849   0.29618   0.60849   0.00000  Uiso   1.00
O41    O     0.70974   0.34742   0.60849   0.00000  Uiso   1.00
O42    O     0.70974   0.39931   0.66037   0.00000  Uiso   1.00
C43    C     0.65883   0.68943   0.63497   0.00000  Uiso   1.00
C44    C     0.63308   0.68943   0.66072   0.00000  Uiso   1.00
C45    C     0.63308   0.66340   0.68674   0.00000  Uiso   1.00
C46    C     0.65883   0.63765   0.68674   0.00000  Uiso   1.00
C47    C     0.68485   0.63766   0.66071   0.00000  Uiso   1.00
C48    C     0.68485   0.66341   0.63497   0.00000  Uiso   1.00
O43    O     0.65850   0.71432   0.60850   0.00000  Uiso   1.00
O44    O     0.60661   0.71432   0.66039   0.00000  Uiso   1.00
O45    O     0.60661   0.66307   0.71163   0.00000  Uiso   1.00
O46    O     0.65850   0.61119   0.71163   0.00000  Uiso   1.00
O47    O     0.70975   0.61119   0.66038   0.00000  Uiso   1.00
O48    O     0.70974   0.66308   0.60850   0.00000  Uiso   1.00
C49    C     0.29583   0.30041   0.48435   0.00000  Uiso   1.00
C50    C     0.29583   0.30041   0.52074   0.00000  Uiso   1.00
C51    C     0.27332   0.27790   0.53918   0.00000  Uiso   1.00
C52    C     0.25101   0.25559   0.52096   0.00000  Uiso   1.00
C53    C     0.25101   0.25560   0.48413   0.00000  Uiso   1.00
C54    C     0.27332   0.27790   0.46591   0.00000  Uiso   1.00
O49    O     0.31796   0.32254   0.46594   0.00000  Uiso   1.00
O50    O     0.31796   0.32253   0.53915   0.00000  Uiso   1.00
O51    O     0.27364   0.27822   0.57553   0.00000  Uiso   1.00
O52    O     0.22862   0.23321   0.53879   0.00000  Uiso   1.00
O53    O     0.22863   0.23321   0.46630   0.00000  Uiso   1.00
O54    O     0.27364   0.27822   0.42956   0.00000  Uiso   1.00
C55    C     0.70550   0.30041   0.52074   0.00000  Uiso   1.00
C56    C     0.70550   0.30041   0.48435   0.00000  Uiso   1.00
C57    C     0.72801   0.27790   0.46591   0.00000  Uiso   1.00
C58    C     0.75032   0.25560   0.48413   0.00000  Uiso   1.00
C59    C     0.75032   0.25560   0.52096   0.00000  Uiso   1.00
C60    C     0.72802   0.27790   0.53918   0.00000  Uiso   1.00
O55    O     0.68337   0.32254   0.53915   0.00000  Uiso   1.00
O56    O     0.68337   0.32254   0.46594   0.00000  Uiso   1.00
O57    O     0.72769   0.27822   0.42956   0.00000  Uiso   1.00
O58    O     0.77270   0.23321   0.46630   0.00000  Uiso   1.00
O59    O     0.77271   0.23321   0.53879   0.00000  Uiso   1.00
O60    O     0.72769   0.27822   0.57553   0.00000  Uiso   1.00
C61    C     0.70551   0.71010   0.48437   0.00000  Uiso   1.00
C62    C     0.70551   0.71010   0.52075   0.00000  Uiso   1.00
C63    C     0.72802   0.73261   0.53919   0.00000  Uiso   1.00
C64    C     0.75033   0.75491   0.52097   0.00000  Uiso   1.00
C65    C     0.75033   0.75491   0.48415   0.00000  Uiso   1.00
C66    C     0.72802   0.73261   0.46593   0.00000  Uiso   1.00
O61    O     0.68338   0.68797   0.46595   0.00000  Uiso   1.00
O62    O     0.68338   0.68796   0.53917   0.00000  Uiso   1.00
O63    O     0.72770   0.73228   0.57555   0.00000  Uiso   1.00
O64    O     0.77271   0.77729   0.53881   0.00000  Uiso   1.00
O65    O     0.77271   0.77729   0.46631   0.00000  Uiso   1.00
O66    O     0.72770   0.73229   0.42957   0.00000  Uiso   1.00
C67    C     0.29583   0.71010   0.48437   0.00000  Uiso   1.00
C68    C     0.29583   0.71010   0.52076   0.00000  Uiso   1.00
C69    C     0.27332   0.73261   0.53920   0.00000  Uiso   1.00
C70    C     0.25101   0.75492   0.52098   0.00000  Uiso   1.00
C71    C     0.25101   0.75492   0.48415   0.00000  Uiso   1.00
C72    C     0.27332   0.73261   0.46593   0.00000  Uiso   1.00
O67    O     0.31796   0.68798   0.46595   0.00000  Uiso   1.00
O68    O     0.31796   0.68797   0.53917   0.00000  Uiso   1.00
O69    O     0.27364   0.73229   0.57555   0.00000  Uiso   1.00
O70    O     0.22863   0.77730   0.53881   0.00000  Uiso   1.00
O71    O     0.22863   0.77730   0.46632   0.00000  Uiso   1.00
O72    O     0.27364   0.73229   0.42958   0.00000  Uiso   1.00
C73    C     0.48247   0.30043   0.29770   0.00000  Uiso   1.00
C74    C     0.51886   0.30043   0.29770   0.00000  Uiso   1.00
C75    C     0.53730   0.27792   0.27518   0.00000  Uiso   1.00
C76    C     0.51908   0.25562   0.25288   0.00000  Uiso   1.00
C77    C     0.48225   0.25562   0.25288   0.00000  Uiso   1.00
C78    C     0.46403   0.27792   0.27518   0.00000  Uiso   1.00
O73    O     0.46406   0.32256   0.31983   0.00000  Uiso   1.00
O74    O     0.53727   0.32256   0.31983   0.00000  Uiso   1.00
O75    O     0.57365   0.27824   0.27551   0.00000  Uiso   1.00
O76    O     0.53691   0.23323   0.23049   0.00000  Uiso   1.00
O77    O     0.46442   0.23323   0.23049   0.00000  Uiso   1.00
O78    O     0.42768   0.27824   0.27551   0.00000  Uiso   1.00
C79    C     0.72803   0.46863   0.27521   0.00000  Uiso   1.00
C80    C     0.75033   0.48685   0.25290   0.00000  Uiso   1.00
C81    C     0.75033   0.52367   0.25290   0.00000  Uiso   1.00
C82    C     0.72803   0.54190   0.27520   0.00000  Uiso   1.00
C83    C     0.70552   0.52346   0.29771   0.00000  Uiso   1.00
C84    C     0.70552   0.48707   0.29772   0.00000  Uiso   1.00
O79    O     0.72770   0.43228   0.27553   0.00000  Uiso   1.00
O80    O     0.77272   0.46901   0.23052   0.00000  Uiso   1.00
O81    O     0.77272   0.54151   0.23052   0.00000  Uiso   1.00
O82    O     0.72771   0.57825   0.27553   0.00000  Uiso   1.00
O83    O     0.68339   0.54187   0.31984   0.00000  Uiso   1.00
O84    O     0.68338   0.46866   0.31984   0.00000  Uiso   1.00
C85    C     0.48247   0.71010   0.29771   0.00000  Uiso   1.00
C86    C     0.51886   0.71010   0.29771   0.00000  Uiso   1.00
C87    C     0.53730   0.73261   0.27520   0.00000  Uiso   1.00
C88    C     0.51908   0.75492   0.25290   0.00000  Uiso   1.00
C89    C     0.48226   0.75492   0.25290   0.00000  Uiso   1.00
C90    C     0.46404   0.73261   0.27520   0.00000  Uiso   1.00
O85    O     0.46406   0.68797   0.31984   0.00000  Uiso   1.00
O86    O     0.53728   0.68797   0.31984   0.00000  Uiso   1.00
O87    O     0.57365   0.73229   0.27553   0.00000  Uiso   1.00
O88    O     0.53692   0.77730   0.23052   0.00000  Uiso   1.00
O89    O     0.46442   0.77730   0.23052   0.00000  Uiso   1.00
O90    O     0.42768   0.73229   0.27553   0.00000  Uiso   1.00
C91    C     0.25100   0.52368   0.25291   0.00000  Uiso   1.00
C92    C     0.27331   0.54190   0.27521   0.00000  Uiso   1.00
C93    C     0.29582   0.52346   0.29772   0.00000  Uiso   1.00
C94    C     0.29582   0.48707   0.29772   0.00000  Uiso   1.00
C95    C     0.27331   0.46863   0.27521   0.00000  Uiso   1.00
C96    C     0.25100   0.48685   0.25291   0.00000  Uiso   1.00
O91    O     0.22862   0.54151   0.23052   0.00000  Uiso   1.00
O92    O     0.27363   0.57825   0.27553   0.00000  Uiso   1.00
O93    O     0.31795   0.54187   0.31985   0.00000  Uiso   1.00
O94    O     0.31795   0.46866   0.31985   0.00000  Uiso   1.00
O95    O     0.27363   0.43228   0.27553   0.00000  Uiso   1.00
O96    O     0.22862   0.46902   0.23052   0.00000  Uiso   1.00
C97    C     0.48248   0.71008   0.70741   0.00000  Uiso   1.00
C98    C     0.51886   0.71008   0.70741   0.00000  Uiso   1.00
C99    C     0.53730   0.73259   0.72992   0.00000  Uiso   1.00
C100   C     0.51908   0.75490   0.75222   0.00000  Uiso   1.00
C101   C     0.48226   0.75490   0.75222   0.00000  Uiso   1.00
C102   C     0.46404   0.73259   0.72992   0.00000  Uiso   1.00
O97    O     0.46406   0.68796   0.68527   0.00000  Uiso   1.00
O98    O     0.53728   0.68795   0.68527   0.00000  Uiso   1.00
O99    O     0.57366   0.73227   0.72959   0.00000  Uiso   1.00
O100   O     0.53692   0.77728   0.77460   0.00000  Uiso   1.00
O101   O     0.46443   0.77728   0.77460   0.00000  Uiso   1.00
O102   O     0.42768   0.73227   0.72959   0.00000  Uiso   1.00
C103   C     0.25100   0.52366   0.75221   0.00000  Uiso   1.00
C104   C     0.27331   0.54188   0.72990   0.00000  Uiso   1.00
C105   C     0.29582   0.52344   0.70739   0.00000  Uiso   1.00
C106   C     0.29582   0.48706   0.70739   0.00000  Uiso   1.00
C107   C     0.27331   0.46862   0.72990   0.00000  Uiso   1.00
C108   C     0.25101   0.48683   0.75220   0.00000  Uiso   1.00
O103   O     0.22862   0.54149   0.77459   0.00000  Uiso   1.00
O104   O     0.27363   0.57823   0.72958   0.00000  Uiso   1.00
O105   O     0.31795   0.54186   0.68526   0.00000  Uiso   1.00
O106   O     0.31795   0.46865   0.68526   0.00000  Uiso   1.00
O107   O     0.27363   0.43226   0.72957   0.00000  Uiso   1.00
O108   O     0.22862   0.46900   0.77459   0.00000  Uiso   1.00
C109   C     0.48247   0.30042   0.70739   0.00000  Uiso   1.00
C110   C     0.51886   0.30042   0.70739   0.00000  Uiso   1.00
C111   C     0.53730   0.27791   0.72990   0.00000  Uiso   1.00
C112   C     0.51908   0.25560   0.75221   0.00000  Uiso   1.00
C113   C     0.48226   0.25560   0.75221   0.00000  Uiso   1.00
C114   C     0.46404   0.27790   0.72990   0.00000  Uiso   1.00
O109   O     0.46406   0.32254   0.68526   0.00000  Uiso   1.00
O110   O     0.53727   0.32254   0.68526   0.00000  Uiso   1.00
O111   O     0.57365   0.27823   0.72958   0.00000  Uiso   1.00
O112   O     0.53691   0.23322   0.77459   0.00000  Uiso   1.00
O113   O     0.46442   0.23322   0.77459   0.00000  Uiso   1.00
O114   O     0.42768   0.27823   0.72958   0.00000  Uiso   1.00
C115   C     0.72803   0.46861   0.72990   0.00000  Uiso   1.00
C116   C     0.75033   0.48683   0.75220   0.00000  Uiso   1.00
C117   C     0.75034   0.52366   0.75221   0.00000  Uiso   1.00
C118   C     0.72803   0.54188   0.72990   0.00000  Uiso   1.00
C119   C     0.70552   0.52344   0.70739   0.00000  Uiso   1.00
C120   C     0.70552   0.48705   0.70739   0.00000  Uiso   1.00
O115   O     0.72770   0.43226   0.72957   0.00000  Uiso   1.00
O116   O     0.77272   0.46899   0.77459   0.00000  Uiso   1.00
O117   O     0.77272   0.54149   0.77459   0.00000  Uiso   1.00
O118   O     0.72771   0.57823   0.72958   0.00000  Uiso   1.00
O119   O     0.68339   0.54186   0.68527   0.00000  Uiso   1.00
O120   O     0.68339   0.46864   0.68526   0.00000  Uiso   1.00
C121   C     0.12322   0.93502   0.50255   0.00000  Uiso   1.00
C122   C     0.13274   0.89953   0.50256   0.00000  Uiso   1.00
C123   C     0.10639   0.87318   0.50256   0.00000  Uiso   1.00
C124   C     0.07090   0.88270   0.50255   0.00000  Uiso   1.00
C125   C     0.06283   0.91808   0.50255   0.00000  Uiso   1.00
C126   C     0.08784   0.94309   0.50255   0.00000  Uiso   1.00
C127   C     0.07068   0.97455   0.50254   0.00000  Uiso   1.00
N1     N     0.03554   0.97038   0.50254   0.00000  Uiso   1.00
C128   C     0.03137   0.93524   0.50255   0.00000  Uiso   1.00
N2     N     0.00067   0.91879   0.50255   0.00000  Uiso   1.00
C129   C     0.96996   0.93524   0.50254   0.00000  Uiso   1.00
N3     N     0.96579   0.97038   0.50254   0.00000  Uiso   1.00
C130   C     0.93065   0.97455   0.50254   0.00000  Uiso   1.00
C131   C     0.91349   0.94309   0.50255   0.00000  Uiso   1.00
C132   C     0.93850   0.91808   0.50255   0.00000  Uiso   1.00
N4     N     0.96579   0.04013   0.50254   0.00000  Uiso   1.00
C133   C     0.93065   0.03596   0.50254   0.00000  Uiso   1.00
N5     N     0.91420   0.00526   0.50254   0.00000  Uiso   1.00
C134   C     0.91349   0.06742   0.50254   0.00000  Uiso   1.00
C135   C     0.93850   0.09243   0.50254   0.00000  Uiso   1.00
C136   C     0.96996   0.07527   0.50253   0.00000  Uiso   1.00
C137   C     0.93043   0.88270   0.50255   0.00000  Uiso   1.00
C138   C     0.89494   0.87318   0.50255   0.00000  Uiso   1.00
C139   C     0.86859   0.89953   0.50255   0.00000  Uiso   1.00
C140   C     0.87811   0.93502   0.50255   0.00000  Uiso   1.00
C141   C     0.93043   0.12781   0.50253   0.00000  Uiso   1.00
C142   C     0.89494   0.13733   0.50254   0.00000  Uiso   1.00
C143   C     0.86859   0.11098   0.50254   0.00000  Uiso   1.00
C144   C     0.87811   0.07549   0.50254   0.00000  Uiso   1.00
N6     N     0.03554   0.04013   0.50254   0.00000  Uiso   1.00
C145   C     0.03137   0.07527   0.50254   0.00000  Uiso   1.00
N7     N     0.00066   0.09172   0.50253   0.00000  Uiso   1.00
C146   C     0.06283   0.09243   0.50254   0.00000  Uiso   1.00
C147   C     0.08783   0.06742   0.50254   0.00000  Uiso   1.00
C148   C     0.07068   0.03596   0.50254   0.00000  Uiso   1.00
C149   C     0.12322   0.07549   0.50254   0.00000  Uiso   1.00
C150   C     0.13274   0.11098   0.50254   0.00000  Uiso   1.00
C151   C     0.10639   0.13733   0.50254   0.00000  Uiso   1.00
C152   C     0.07090   0.12781   0.50254   0.00000  Uiso   1.00
N8     N     0.08713   0.00526   0.50254   0.00000  Uiso   1.00
H1     H     0.14262   0.95550   0.50255   0.00000  Uiso   1.00
H2     H     0.05042   0.86330   0.50255   0.00000  Uiso   1.00
H3     H     0.95091   0.86330   0.50255   0.00000  Uiso   1.00
H4     H     0.85871   0.95550   0.50255   0.00000  Uiso   1.00
H5     H     0.95091   0.14721   0.50253   0.00000  Uiso   1.00
H6     H     0.85871   0.05501   0.50254   0.00000  Uiso   1.00
H7     H     0.14262   0.05501   0.50254   0.00000  Uiso   1.00
H8     H     0.05042   0.14721   0.50253   0.00000  Uiso   1.00
C153   C     0.16795   0.12065   0.50254   0.00000  Uiso   1.00
C154   C     0.17721   0.15581   0.50254   0.00000  Uiso   1.00
C155   C     0.15122   0.18180   0.50254   0.00000  Uiso   1.00
C156   C     0.11605   0.17254   0.50254   0.00000  Uiso   1.00
C157   C     0.16795   0.88987   0.50256   0.00000  Uiso   1.00
C158   C     0.17721   0.85470   0.50256   0.00000  Uiso   1.00
C159   C     0.15122   0.82871   0.50256   0.00000  Uiso   1.00
C160   C     0.11606   0.83797   0.50256   0.00000  Uiso   1.00
C161   C     0.88528   0.83797   0.50256   0.00000  Uiso   1.00
C162   C     0.85011   0.82871   0.50256   0.00000  Uiso   1.00
C163   C     0.82412   0.85470   0.50256   0.00000  Uiso   1.00
C164   C     0.83338   0.88986   0.50255   0.00000  Uiso   1.00
C165   C     0.88527   0.17254   0.50254   0.00000  Uiso   1.00
C166   C     0.85011   0.18180   0.50254   0.00000  Uiso   1.00
C167   C     0.82412   0.15581   0.50254   0.00000  Uiso   1.00
C168   C     0.83338   0.12065   0.50254   0.00000  Uiso   1.00
H9     H     0.18820   0.10101   0.50254   0.00000  Uiso   1.00
O121   O     0.21220   0.16556   0.50254   0.00000  Uiso   1.00
O122   O     0.16097   0.21680   0.50254   0.00000  Uiso   1.00
H10    H     0.09642   0.19280   0.50254   0.00000  Uiso   1.00
H11    H     0.18820   0.90950   0.50256   0.00000  Uiso   1.00
O123   O     0.21220   0.84495   0.50256   0.00000  Uiso   1.00
O124   O     0.16097   0.79372   0.50256   0.00000  Uiso   1.00
H12    H     0.09642   0.81772   0.50256   0.00000  Uiso   1.00
H13    H     0.90492   0.81772   0.50256   0.00000  Uiso   1.00
O125   O     0.84036   0.79371   0.50256   0.00000  Uiso   1.00
O126   O     0.78913   0.84495   0.50256   0.00000  Uiso   1.00
H14    H     0.81313   0.90950   0.50255   0.00000  Uiso   1.00
H15    H     0.90491   0.19279   0.50254   0.00000  Uiso   1.00
O127   O     0.84036   0.21679   0.50254   0.00000  Uiso   1.00
O128   O     0.78913   0.16556   0.50254   0.00000  Uiso   1.00
H16    H     0.81313   0.10101   0.50254   0.00000  Uiso   1.00
Ni1    Ni    0.00066   0.00526   0.50253   0.00000  Uiso   1.00
C169   C     0.50067   0.07550   0.12511   0.00000  Uiso   1.00
C170   C     0.50067   0.11099   0.13462   0.00000  Uiso   1.00
C171   C     0.50067   0.13734   0.10827   0.00000  Uiso   1.00
C172   C     0.50067   0.12782   0.07278   0.00000  Uiso   1.00
C173   C     0.50068   0.09243   0.06472   0.00000  Uiso   1.00
C174   C     0.50068   0.06743   0.08972   0.00000  Uiso   1.00
C175   C     0.50068   0.03596   0.07257   0.00000  Uiso   1.00
N9     N     0.50068   0.04014   0.03743   0.00000  Uiso   1.00
C176   C     0.50068   0.07527   0.03325   0.00000  Uiso   1.00
N10    N     0.50068   0.09172   0.00255   0.00000  Uiso   1.00
C177   C     0.50068   0.07527   0.97184   0.00000  Uiso   1.00
N11    N     0.50068   0.04013   0.96767   0.00000  Uiso   1.00
C178   C     0.50068   0.03596   0.93253   0.00000  Uiso   1.00
C179   C     0.50068   0.06742   0.91538   0.00000  Uiso   1.00
C180   C     0.50068   0.09243   0.94038   0.00000  Uiso   1.00
N12    N     0.50068   0.97038   0.96767   0.00000  Uiso   1.00
C181   C     0.50068   0.97455   0.93254   0.00000  Uiso   1.00
N13    N     0.50068   0.00525   0.91608   0.00000  Uiso   1.00
C182   C     0.50068   0.94309   0.91538   0.00000  Uiso   1.00
C183   C     0.50068   0.91808   0.94039   0.00000  Uiso   1.00
C184   C     0.50068   0.93524   0.97185   0.00000  Uiso   1.00
C185   C     0.50068   0.12781   0.93231   0.00000  Uiso   1.00
C186   C     0.50067   0.13733   0.89683   0.00000  Uiso   1.00
C187   C     0.50067   0.11098   0.87047   0.00000  Uiso   1.00
C188   C     0.50068   0.07549   0.87999   0.00000  Uiso   1.00
C189   C     0.50068   0.88270   0.93232   0.00000  Uiso   1.00
C190   C     0.50068   0.87318   0.89684   0.00000  Uiso   1.00
C191   C     0.50068   0.89953   0.87048   0.00000  Uiso   1.00
C192   C     0.50068   0.93502   0.88000   0.00000  Uiso   1.00
N14    N     0.50068   0.97038   0.03743   0.00000  Uiso   1.00
C193   C     0.50068   0.93524   0.03326   0.00000  Uiso   1.00
N15    N     0.50068   0.91879   0.00256   0.00000  Uiso   1.00
C194   C     0.50068   0.91809   0.06472   0.00000  Uiso   1.00
C195   C     0.50068   0.94309   0.08973   0.00000  Uiso   1.00
C196   C     0.50068   0.97456   0.07257   0.00000  Uiso   1.00
C197   C     0.50068   0.93503   0.12511   0.00000  Uiso   1.00
C198   C     0.50068   0.89954   0.13463   0.00000  Uiso   1.00
C199   C     0.50068   0.87319   0.10828   0.00000  Uiso   1.00
C200   C     0.50068   0.88270   0.07279   0.00000  Uiso   1.00
N16    N     0.50068   0.00526   0.08902   0.00000  Uiso   1.00
H17    H     0.50067   0.05502   0.14450   0.00000  Uiso   1.00
H18    H     0.50067   0.14721   0.05230   0.00000  Uiso   1.00
H19    H     0.50068   0.14721   0.95279   0.00000  Uiso   1.00
H20    H     0.50068   0.05501   0.86060   0.00000  Uiso   1.00
H21    H     0.50068   0.86330   0.95280   0.00000  Uiso   1.00
H22    H     0.50068   0.95549   0.86060   0.00000  Uiso   1.00
H23    H     0.50068   0.95551   0.14451   0.00000  Uiso   1.00
H24    H     0.50068   0.86331   0.05231   0.00000  Uiso   1.00
C201   C     0.50067   0.88987   0.16984   0.00000  Uiso   1.00
C202   C     0.50067   0.85470   0.17910   0.00000  Uiso   1.00
C203   C     0.50067   0.82871   0.15311   0.00000  Uiso   1.00
C204   C     0.50067   0.83797   0.11795   0.00000  Uiso   1.00
C205   C     0.50067   0.12066   0.16983   0.00000  Uiso   1.00
C206   C     0.50067   0.15583   0.17909   0.00000  Uiso   1.00
C207   C     0.50067   0.18182   0.15310   0.00000  Uiso   1.00
C208   C     0.50067   0.17255   0.11793   0.00000  Uiso   1.00
C209   C     0.50067   0.17254   0.88716   0.00000  Uiso   1.00
C210   C     0.50067   0.18180   0.85199   0.00000  Uiso   1.00
C211   C     0.50067   0.15581   0.82600   0.00000  Uiso   1.00
C212   C     0.50067   0.12065   0.83526   0.00000  Uiso   1.00
C213   C     0.50067   0.83796   0.88717   0.00000  Uiso   1.00
C214   C     0.50067   0.82870   0.85200   0.00000  Uiso   1.00
C215   C     0.50067   0.85469   0.82601   0.00000  Uiso   1.00
C216   C     0.50067   0.88986   0.83527   0.00000  Uiso   1.00
H25    H     0.50067   0.90951   0.19009   0.00000  Uiso   1.00
O129   O     0.50067   0.84495   0.21410   0.00000  Uiso   1.00
O130   O     0.50067   0.79372   0.16286   0.00000  Uiso   1.00
H26    H     0.50067   0.81772   0.09831   0.00000  Uiso   1.00
H27    H     0.50067   0.10102   0.19009   0.00000  Uiso   1.00
O131   O     0.50067   0.16558   0.21408   0.00000  Uiso   1.00
O132   O     0.50067   0.21681   0.16284   0.00000  Uiso   1.00
H28    H     0.50067   0.19280   0.09829   0.00000  Uiso   1.00
H29    H     0.50067   0.19279   0.90680   0.00000  Uiso   1.00
O133   O     0.50067   0.21679   0.84224   0.00000  Uiso   1.00
O134   O     0.50067   0.16556   0.79101   0.00000  Uiso   1.00
H30    H     0.50067   0.10101   0.81501   0.00000  Uiso   1.00
H31    H     0.50067   0.81771   0.90681   0.00000  Uiso   1.00
O135   O     0.50067   0.79371   0.84226   0.00000  Uiso   1.00
O136   O     0.50067   0.84494   0.79102   0.00000  Uiso   1.00
H32    H     0.50067   0.90949   0.81502   0.00000  Uiso   1.00
Ni2    Ni    0.50067   0.00526   0.00255   0.00000  Uiso   1.00
C217   C     0.87811   0.50522   0.07279   0.00000  Uiso   1.00
C218   C     0.86860   0.50523   0.10828   0.00000  Uiso   1.00
C219   C     0.89495   0.50523   0.13463   0.00000  Uiso   1.00
C220   C     0.93044   0.50523   0.12511   0.00000  Uiso   1.00
C221   C     0.93850   0.50522   0.08973   0.00000  Uiso   1.00
C222   C     0.91350   0.50522   0.06472   0.00000  Uiso   1.00
C223   C     0.93066   0.50521   0.03326   0.00000  Uiso   1.00
N17    N     0.96579   0.50521   0.03743   0.00000  Uiso   1.00
C224   C     0.96997   0.50521   0.07257   0.00000  Uiso   1.00
N18    N     0.00067   0.50522   0.08902   0.00000  Uiso   1.00
C225   C     0.03137   0.50521   0.07257   0.00000  Uiso   1.00
N19    N     0.03555   0.50521   0.03743   0.00000  Uiso   1.00
C226   C     0.07069   0.50521   0.03326   0.00000  Uiso   1.00
C227   C     0.08784   0.50522   0.06472   0.00000  Uiso   1.00
C228   C     0.06284   0.50522   0.08973   0.00000  Uiso   1.00
N20    N     0.03555   0.50521   0.96768   0.00000  Uiso   1.00
C229   C     0.07069   0.50521   0.97185   0.00000  Uiso   1.00
N21    N     0.08714   0.50521   0.00255   0.00000  Uiso   1.00
C230   C     0.08784   0.50521   0.94039   0.00000  Uiso   1.00
C231   C     0.06284   0.50521   0.91538   0.00000  Uiso   1.00
C232   C     0.03137   0.50521   0.93254   0.00000  Uiso   1.00
C233   C     0.07090   0.50523   0.12511   0.00000  Uiso   1.00
C234   C     0.10639   0.50524   0.13463   0.00000  Uiso   1.00
C235   C     0.13274   0.50523   0.10828   0.00000  Uiso   1.00
C236   C     0.12323   0.50523   0.07279   0.00000  Uiso   1.00
C237   C     0.07090   0.50521   0.88000   0.00000  Uiso   1.00
C238   C     0.10639   0.50522   0.87048   0.00000  Uiso   1.00
C239   C     0.13274   0.50522   0.89683   0.00000  Uiso   1.00
C240   C     0.12323   0.50522   0.93232   0.00000  Uiso   1.00
N22    N     0.96579   0.50520   0.96768   0.00000  Uiso   1.00
C241   C     0.96997   0.50520   0.93254   0.00000  Uiso   1.00
N23    N     0.00067   0.50521   0.91609   0.00000  Uiso   1.00
C242   C     0.93850   0.50521   0.91538   0.00000  Uiso   1.00
C243   C     0.91350   0.50521   0.94039   0.00000  Uiso   1.00
C244   C     0.93066   0.50521   0.97185   0.00000  Uiso   1.00
C245   C     0.87811   0.50521   0.93232   0.00000  Uiso   1.00
C246   C     0.86860   0.50522   0.89683   0.00000  Uiso   1.00
C247   C     0.89495   0.50522   0.87048   0.00000  Uiso   1.00
C248   C     0.93044   0.50521   0.88000   0.00000  Uiso   1.00
N24    N     0.91420   0.50521   0.00255   0.00000  Uiso   1.00
H33    H     0.85872   0.50522   0.05231   0.00000  Uiso   1.00
H34    H     0.95092   0.50523   0.14451   0.00000  Uiso   1.00
H35    H     0.05042   0.50523   0.14451   0.00000  Uiso   1.00
H36    H     0.14262   0.50522   0.05231   0.00000  Uiso   1.00
H37    H     0.05042   0.50521   0.86060   0.00000  Uiso   1.00
H38    H     0.14262   0.50522   0.95280   0.00000  Uiso   1.00
H39    H     0.85872   0.50521   0.95280   0.00000  Uiso   1.00
H40    H     0.95092   0.50521   0.86060   0.00000  Uiso   1.00
C249   C     0.83339   0.50522   0.88716   0.00000  Uiso   1.00
C250   C     0.82413   0.50523   0.85199   0.00000  Uiso   1.00
C251   C     0.85012   0.50523   0.82600   0.00000  Uiso   1.00
C252   C     0.88528   0.50522   0.83526   0.00000  Uiso   1.00
C253   C     0.83338   0.50524   0.11795   0.00000  Uiso   1.00
C254   C     0.82413   0.50525   0.15311   0.00000  Uiso   1.00
C255   C     0.85012   0.50525   0.17910   0.00000  Uiso   1.00
C256   C     0.88528   0.50524   0.16984   0.00000  Uiso   1.00
C257   C     0.11606   0.50524   0.16984   0.00000  Uiso   1.00
C258   C     0.15122   0.50525   0.17911   0.00000  Uiso   1.00
C259   C     0.17721   0.50525   0.15312   0.00000  Uiso   1.00
C260   C     0.16795   0.50524   0.11795   0.00000  Uiso   1.00
C261   C     0.11606   0.50523   0.83527   0.00000  Uiso   1.00
C262   C     0.15122   0.50523   0.82600   0.00000  Uiso   1.00
C263   C     0.17722   0.50523   0.85199   0.00000  Uiso   1.00
C264   C     0.16796   0.50523   0.88716   0.00000  Uiso   1.00
H41    H     0.81313   0.50522   0.90680   0.00000  Uiso   1.00
O137   O     0.78914   0.50523   0.84224   0.00000  Uiso   1.00
O138   O     0.84037   0.50523   0.79101   0.00000  Uiso   1.00
H42    H     0.90492   0.50522   0.81501   0.00000  Uiso   1.00
H43    H     0.81313   0.50524   0.09831   0.00000  Uiso   1.00
O139   O     0.78913   0.50526   0.16286   0.00000  Uiso   1.00
O140   O     0.84037   0.50526   0.21410   0.00000  Uiso   1.00
H44    H     0.90492   0.50524   0.19009   0.00000  Uiso   1.00
H45    H     0.09642   0.50524   0.19009   0.00000  Uiso   1.00
O141   O     0.16097   0.50526   0.21410   0.00000  Uiso   1.00
O142   O     0.21220   0.50526   0.16287   0.00000  Uiso   1.00
H46    H     0.18821   0.50524   0.09831   0.00000  Uiso   1.00
H47    H     0.09642   0.50523   0.81501   0.00000  Uiso   1.00
O143   O     0.16097   0.50524   0.79101   0.00000  Uiso   1.00
O144   O     0.21221   0.50524   0.84224   0.00000  Uiso   1.00
H48    H     0.18821   0.50523   0.90680   0.00000  Uiso   1.00
Ni3    Ni    0.00067   0.50520   0.00255   0.00000  Uiso   1.00
Zn1    Zn    0.30640   0.31098   0.42208   0.00000  Uiso   1.00
Zn2    Zn    0.69494   0.31098   0.42208   0.00000  Uiso   1.00
Zn3    Zn    0.69494   0.69953   0.42209   0.00000  Uiso   1.00
Zn4    Zn    0.30639   0.69954   0.42209   0.00000  Uiso   1.00
Zn5    Zn    0.30639   0.69953   0.58303   0.00000  Uiso   1.00
Zn6    Zn    0.30639   0.31097   0.58302   0.00000  Uiso   1.00
Zn7    Zn    0.69494   0.31098   0.58301   0.00000  Uiso   1.00
Zn8    Zn    0.69494   0.69953   0.58303   0.00000  Uiso   1.00
Zn9    Zn    0.42020   0.31099   0.30827   0.00000  Uiso   1.00
Zn10   Zn    0.69495   0.42480   0.30828   0.00000  Uiso   1.00
Zn11   Zn    0.58114   0.69953   0.30828   0.00000  Uiso   1.00
Zn12   Zn    0.30639   0.58573   0.30829   0.00000  Uiso   1.00
Zn13   Zn    0.42020   0.69952   0.69684   0.00000  Uiso   1.00
Zn14   Zn    0.30639   0.42478   0.69682   0.00000  Uiso   1.00
Zn15   Zn    0.58114   0.31098   0.69682   0.00000  Uiso   1.00
Zn16   Zn    0.69495   0.58572   0.69683   0.00000  Uiso   1.00
Zn17   Zn    0.30639   0.42480   0.30829   0.00000  Uiso   1.00
Zn18   Zn    0.30639   0.58572   0.69683   0.00000  Uiso   1.00
Zn19   Zn    0.42020   0.31098   0.69682   0.00000  Uiso   1.00
Zn20   Zn    0.69495   0.42478   0.69682   0.00000  Uiso   1.00
Zn21   Zn    0.58114   0.69952   0.69684   0.00000  Uiso   1.00
Zn22   Zn    0.69495   0.58573   0.30828   0.00000  Uiso   1.00
Zn23   Zn    0.42020   0.69954   0.30828   0.00000  Uiso   1.00
Zn24   Zn    0.58113   0.31100   0.30827   0.00000  Uiso   1.00
Zn25   Zn    0.20761   0.21220   0.50254   0.00000  Uiso   1.00
Zn26   Zn    0.79372   0.21220   0.50254   0.00000  Uiso   1.00
Zn27   Zn    0.79372   0.79831   0.50256   0.00000  Uiso   1.00
Zn28   Zn    0.20761   0.79831   0.50256   0.00000  Uiso   1.00
Zn29   Zn    0.50067   0.21222   0.20948   0.00000  Uiso   1.00
Zn30   Zn    0.79373   0.50526   0.20950   0.00000  Uiso   1.00
Zn31   Zn    0.50067   0.79831   0.20950   0.00000  Uiso   1.00
Zn32   Zn    0.20761   0.50526   0.20951   0.00000  Uiso   1.00
Zn33   Zn    0.50067   0.79830   0.79562   0.00000  Uiso   1.00
Zn34   Zn    0.20761   0.50524   0.79560   0.00000  Uiso   1.00
Zn35   Zn    0.50067   0.21220   0.79560   0.00000  Uiso   1.00
Zn36   Zn    0.79373   0.50524   0.79560   0.00000  Uiso   1.00
loop_
_geom_bond_atom_site_label_1
_geom_bond_atom_site_label_2
_geom_bond_distance
_geom_bond_site_symmetry_2
_ccdc_geom_bond_type
C1     C2      1.399   .     A
C1     C6      1.414   .     A
C1     O1      1.396   .     S
C2     C3      1.414   .     A
C2     O2      1.396   .     S
C3     C4      1.399   .     A
C3     O3      1.396   .     S
C4     C5      1.414   .     A
C4     O4      1.396   .     S
C5     C6      1.399   .     A
C5     O5      1.396   .     S
C6     O6      1.396   .     S
O1     Zn1     1.800   .     S
O2     Zn9     1.800   .     S
O3     Zn9     1.800   .     S
O4     Zn17    1.800   .     S
O5     Zn17    1.800   .     S
O6     Zn1     1.800   .     S
C7     C8      1.399   .     A
C7     C12     1.414   .     A
C7     O7      1.396   .     S
C8     C9      1.414   .     A
C8     O8      1.396   .     S
C9     C10     1.399   .     A
C9     O9      1.396   .     S
C10    C11     1.414   .     A
C10    O10     1.396   .     S
C11    C12     1.399   .     A
C11    O11     1.396   .     S
C12    O12     1.396   .     S
O7     Zn10    1.800   .     S
O8     Zn24    1.800   .     S
O9     Zn24    1.800   .     S
O10    Zn2     1.800   .     S
O11    Zn2     1.800   .     S
O12    Zn10    1.800   .     S
C13    C14     1.399   .     A
C13    C18     1.414   .     A
C13    O13     1.396   .     S
C14    C15     1.414   .     A
C14    O14     1.396   .     S
C15    C16     1.399   .     A
C15    O15     1.396   .     S
C16    C17     1.414   .     A
C16    O16     1.396   .     S
C17    C18     1.399   .     A
C17    O17     1.396   .     S
C18    O18     1.396   .     S
O13    Zn3     1.800   .     S
O14    Zn11    1.800   .     S
O15    Zn11    1.800   .     S
O16    Zn22    1.800   .     S
O17    Zn22    1.800   .     S
O18    Zn3     1.800   .     S
C19    C20     1.399   .     A
C19    C24     1.414   .     A
C19    O19     1.396   .     S
C20    C21     1.414   .     A
C20    O20     1.396   .     S
C21    C22     1.399   .     A
C21    O21     1.396   .     S
C22    C23     1.414   .     A
C22    O22     1.396   .     S
C23    C24     1.399   .     A
C23    O23     1.396   .     S
C24    O24     1.396   .     S
O19    Zn12    1.800   .     S
O20    Zn23    1.800   .     S
O21    Zn23    1.800   .     S
O22    Zn4     1.800   .     S
O23    Zn4     1.800   .     S
O24    Zn12    1.800   .     S
C25    C26     1.399   .     A
C25    C30     1.414   .     A
C25    O25     1.396   .     S
C26    C27     1.414   .     A
C26    O26     1.396   .     S
C27    C28     1.399   .     A
C27    O27     1.396   .     S
C28    C29     1.414   .     A
C28    O28     1.396   .     S
C29    C30     1.399   .     A
C29    O29     1.396   .     S
C30    O30     1.396   .     S
O25    Zn18    1.800   .     S
O26    Zn13    1.800   .     S
O27    Zn13    1.800   .     S
O28    Zn5     1.800   .     S
O29    Zn5     1.800   .     S
O30    Zn18    1.800   .     S
C31    C32     1.399   .     A
C31    C36     1.414   .     A
C31    O31     1.396   .     S
C32    C33     1.414   .     A
C32    O32     1.396   .     S
C33    C34     1.399   .     A
C33    O33     1.396   .     S
C34    C35     1.414   .     A
C34    O34     1.396   .     S
C35    C36     1.399   .     A
C35    O35     1.396   .     S
C36    O36     1.396   .     S
O31    Zn19    1.800   .     S
O32    Zn14    1.800   .     S
O33    Zn14    1.800   .     S
O34    Zn6     1.800   .     S
O35    Zn6     1.800   .     S
O36    Zn19    1.800   .     S
C37    C38     1.399   .     A
C37    C42     1.414   .     A
C37    O37     1.396   .     S
C38    C39     1.414   .     A
C38    O38     1.396   .     S
C39    C40     1.399   .     A
C39    O39     1.396   .     S
C40    C41     1.414   .     A
C40    O40     1.396   .     S
C41    C42     1.399   .     A
C41    O41     1.396   .     S
C42    O42     1.396   .     S
O37    Zn20    1.800   .     S
O38    Zn15    1.800   .     S
O39    Zn15    1.800   .     S
O40    Zn7     1.800   .     S
O41    Zn7     1.800   .     S
O42    Zn20    1.800   .     S
C43    C44     1.399   .     A
C43    C48     1.414   .     A
C43    O43     1.396   .     S
C44    C45     1.414   .     A
C44    O44     1.396   .     S
C45    C46     1.399   .     A
C45    O45     1.396   .     S
C46    C47     1.414   .     A
C46    O46     1.396   .     S
C47    C48     1.399   .     A
C47    O47     1.396   .     S
C48    O48     1.396   .     S
O43    Zn8     1.800   .     S
O44    Zn21    1.800   .     S
O45    Zn21    1.800   .     S
O46    Zn16    1.800   .     S
O47    Zn16    1.800   .     S
O48    Zn8     1.800   .     S
C49    C50     1.398   .     A
C49    C54     1.413   .     A
C49    O49     1.395   .     S
C50    C51     1.413   .     A
C50    O50     1.395   .     S
C51    C52     1.399   .     A
C51    O51     1.397   .     S
C52    C53     1.415   .     A
C52    O52     1.396   .     S
C53    C54     1.399   .     A
C53    O53     1.396   .     S
C54    O54     1.397   .     S
O49    Zn1     1.798   .     S
O50    Zn6     1.798   .     S
O51    Zn6     1.803   .     S
O52    Zn25    1.801   .     S
O53    Zn25    1.801   .     S
O54    Zn1     1.803   .     S
C55    C56     1.398   .     A
C55    C60     1.413   .     A
C55    O55     1.395   .     S
C56    C57     1.413   .     A
C56    O56     1.395   .     S
C57    C58     1.399   .     A
C57    O57     1.397   .     S
C58    C59     1.415   .     A
C58    O58     1.396   .     S
C59    C60     1.399   .     A
C59    O59     1.396   .     S
C60    O60     1.397   .     S
O55    Zn7     1.798   .     S
O56    Zn2     1.798   .     S
O57    Zn2     1.803   .     S
O58    Zn26    1.801   .     S
O59    Zn26    1.801   .     S
O60    Zn7     1.803   .     S
C61    C62     1.398   .     A
C61    C66     1.413   .     A
C61    O61     1.395   .     S
C62    C63     1.413   .     A
C62    O62     1.395   .     S
C63    C64     1.399   .     A
C63    O63     1.397   .     S
C64    C65     1.415   .     A
C64    O64     1.396   .     S
C65    C66     1.399   .     A
C65    O65     1.396   .     S
C66    O66     1.397   .     S
O61    Zn3     1.798   .     S
O62    Zn8     1.798   .     S
O63    Zn8     1.803   .     S
O64    Zn27    1.801   .     S
O65    Zn27    1.801   .     S
O66    Zn3     1.803   .     S
C67    C68     1.398   .     A
C67    C72     1.413   .     A
C67    O67     1.395   .     S
C68    C69     1.413   .     A
C68    O68     1.395   .     S
C69    C70     1.399   .     A
C69    O69     1.397   .     S
C70    C71     1.415   .     A
C70    O70     1.396   .     S
C71    C72     1.399   .     A
C71    O71     1.396   .     S
C72    O72     1.397   .     S
O67    Zn4     1.798   .     S
O68    Zn5     1.798   .     S
O69    Zn5     1.803   .     S
O70    Zn28    1.801   .     S
O71    Zn28    1.801   .     S
O72    Zn4     1.803   .     S
C73    C74     1.398   .     A
C73    C78     1.413   .     A
C73    O73     1.395   .     S
C74    C75     1.413   .     A
C74    O74     1.395   .     S
C75    C76     1.399   .     A
C75    O75     1.397   .     S
C76    C77     1.415   .     A
C76    O76     1.396   .     S
C77    C78     1.399   .     A
C77    O77     1.396   .     S
C78    O78     1.397   .     S
O73    Zn9     1.798   .     S
O74    Zn24    1.798   .     S
O75    Zn24    1.803   .     S
O76    Zn29    1.801   .     S
O77    Zn29    1.801   .     S
O78    Zn9     1.803   .     S
C79    C80     1.399   .     A
C79    C84     1.413   .     A
C79    O79     1.397   .     S
C80    C81     1.415   .     A
C80    O80     1.396   .     S
C81    C82     1.399   .     A
C81    O81     1.396   .     S
C82    C83     1.413   .     A
C82    O82     1.397   .     S
C83    C84     1.398   .     A
C83    O83     1.395   .     S
C84    O84     1.395   .     S
O79    Zn10    1.803   .     S
O80    Zn30    1.801   .     S
O81    Zn30    1.801   .     S
O82    Zn22    1.803   .     S
O83    Zn22    1.798   .     S
O84    Zn10    1.798   .     S
C85    C86     1.398   .     A
C85    C90     1.413   .     A
C85    O85     1.395   .     S
C86    C87     1.413   .     A
C86    O86     1.395   .     S
C87    C88     1.399   .     A
C87    O87     1.397   .     S
C88    C89     1.415   .     A
C88    O88     1.396   .     S
C89    C90     1.399   .     A
C89    O89     1.396   .     S
C90    O90     1.397   .     S
O85    Zn23    1.798   .     S
O86    Zn11    1.798   .     S
O87    Zn11    1.803   .     S
O88    Zn31    1.801   .     S
O89    Zn31    1.801   .     S
O90    Zn23    1.803   .     S
C91    C92     1.399   .     A
C91    C96     1.415   .     A
C91    O91     1.396   .     S
C92    C93     1.413   .     A
C92    O92     1.397   .     S
C93    C94     1.398   .     A
C93    O93     1.395   .     S
C94    C95     1.413   .     A
C94    O94     1.395   .     S
C95    C96     1.399   .     A
C95    O95     1.397   .     S
C96    O96     1.396   .     S
O91    Zn32    1.801   .     S
O92    Zn12    1.803   .     S
O93    Zn12    1.798   .     S
O94    Zn17    1.798   .     S
O95    Zn17    1.803   .     S
O96    Zn32    1.801   .     S
C97    C98     1.398   .     A
C97    C102    1.413   .     A
C97    O97     1.395   .     S
C98    C99     1.413   .     A
C98    O98     1.395   .     S
C99    C100    1.399   .     A
C99    O99     1.397   .     S
C100   C101    1.415   .     A
C100   O100    1.396   .     S
C101   C102    1.399   .     A
C101   O101    1.396   .     S
C102   O102    1.397   .     S
O97    Zn13    1.798   .     S
O98    Zn21    1.798   .     S
O99    Zn21    1.803   .     S
O100   Zn33    1.801   .     S
O101   Zn33    1.801   .     S
O102   Zn13    1.803   .     S
C103   C104    1.399   .     A
C103   C108    1.415   .     A
C103   O103    1.396   .     S
C104   C105    1.413   .     A
C104   O104    1.397   .     S
C105   C106    1.398   .     A
C105   O105    1.395   .     S
C106   C107    1.413   .     A
C106   O106    1.395   .     S
C107   C108    1.399   .     A
C107   O107    1.397   .     S
C108   O108    1.396   .     S
O103   Zn34    1.801   .     S
O104   Zn18    1.803   .     S
O105   Zn18    1.798   .     S
O106   Zn14    1.798   .     S
O107   Zn14    1.803   .     S
O108   Zn34    1.801   .     S
C109   C110    1.398   .     A
C109   C114    1.413   .     A
C109   O109    1.395   .     S
C110   C111    1.413   .     A
C110   O110    1.395   .     S
C111   C112    1.399   .     A
C111   O111    1.397   .     S
C112   C113    1.415   .     A
C112   O112    1.396   .     S
C113   C114    1.399   .     A
C113   O113    1.396   .     S
C114   O114    1.397   .     S
O109   Zn19    1.798   .     S
O110   Zn15    1.798   .     S
O111   Zn15    1.803   .     S
O112   Zn35    1.801   .     S
O113   Zn35    1.801   .     S
O114   Zn19    1.803   .     S
C115   C116    1.399   .     A
C115   C120    1.413   .     A
C115   O115    1.397   .     S
C116   C117    1.415   .     A
C116   O116    1.396   .     S
C117   C118    1.399   .     A
C117   O117    1.396   .     S
C118   C119    1.413   .     A
C118   O118    1.397   .     S
C119   C120    1.398   .     A
C119   O119    1.395   .     S
C120   O120    1.395   .     S
O115   Zn20    1.803   .     S
O116   Zn36    1.801   .     S
O117   Zn36    1.801   .     S
O118   Zn16    1.803   .     S
O119   Zn16    1.798   .     S
O120   Zn20    1.798   .     S
C121   C122    1.412   .     A
C121   C126    1.394   .     A
C121   H1      1.084   .     S
C122   C123    1.432   .     A
C122   C157    1.403   .     A
C123   C124    1.412   .     A
C123   C160    1.403   .     A
C124   C125    1.394   .     A
C124   H2      1.084   .     S
C125   C126    1.358   .     A
C125   C128    1.377   .     A
C126   C127    1.377   .     A
C127   N1      1.359   .     A
C127   N8      1.338   1_565 A
N1     C128    1.359   .     A
N1     Ni1     1.895   1_565 S
C128   N2      1.338   .     A
N2     C129    1.338   1_455 A
C129   N2      1.338   1_655 A
C129   N3      1.359   .     A
C129   C132    1.377   .     A
N3     C130    1.359   .     A
N3     Ni1     1.895   1_665 S
C130   C131    1.377   .     A
C130   N5      1.338   1_565 A
C131   C132    1.358   .     A
C131   C140    1.394   .     A
C132   C137    1.394   .     A
N4     C133    1.359   .     A
N4     C136    1.359   .     A
N4     Ni1     1.895   1_655 S
C133   N5      1.338   .     A
C133   C134    1.377   .     A
N5     C130    1.338   1_545 A
C134   C135    1.358   .     A
C134   C144    1.394   .     A
C135   C136    1.377   .     A
C135   C141    1.394   .     A
C136   N7      1.338   1_655 A
C137   C138    1.412   .     A
C137   H3      1.084   .     S
C138   C139    1.432   .     A
C138   C161    1.403   .     A
C139   C140    1.412   .     A
C139   C164    1.403   .     A
C140   H4      1.084   .     S
C141   C142    1.412   .     A
C141   H5      1.084   .     S
C142   C143    1.432   .     A
C142   C165    1.403   .     A
C143   C144    1.412   .     A
C143   C168    1.403   .     A
C144   H6      1.084   .     S
N6     C145    1.359   .     A
N6     C148    1.359   .     A
N6     Ni1     1.895   .     S
C145   N7      1.338   .     A
C145   C146    1.377   .     A
N7     C136    1.338   1_455 A
C146   C147    1.358   .     A
C146   C152    1.394   .     A
C147   C148    1.377   .     A
C147   C149    1.394   .     A
C148   N8      1.338   .     A
C149   C150    1.412   .     A
C149   H7      1.084   .     S
C150   C151    1.432   .     A
C150   C153    1.403   .     A
C151   C152    1.412   .     A
C151   C156    1.403   .     A
C152   H8      1.084   .     S
N8     C127    1.338   1_545 A
C153   C154    1.397   .     A
C153   H9      1.084   .     S
C154   C155    1.412   .     A
C154   O121    1.395   .     S
C155   C156    1.397   .     A
C155   O122    1.395   .     S
C156   H10     1.084   .     S
C157   C158    1.397   .     A
C157   H11     1.084   .     S
C158   C159    1.412   .     A
C158   O123    1.395   .     S
C159   C160    1.397   .     A
C159   O124    1.395   .     S
C160   H12     1.084   .     S
C161   C162    1.397   .     A
C161   H13     1.084   .     S
C162   C163    1.412   .     A
C162   O125    1.395   .     S
C163   C164    1.397   .     A
C163   O126    1.395   .     S
C164   H14     1.084   .     S
C165   C166    1.397   .     A
C165   H15     1.084   .     S
C166   C167    1.412   .     A
C166   O127    1.395   .     S
C167   C168    1.397   .     A
C167   O128    1.395   .     S
C168   H16     1.084   .     S
O121   Zn25    1.800   .     S
O122   Zn25    1.800   .     S
O123   Zn28    1.800   .     S
O124   Zn28    1.800   .     S
O125   Zn27    1.800   .     S
O126   Zn27    1.800   .     S
O127   Zn26    1.800   .     S
O128   Zn26    1.800   .     S
Ni1    N4      1.895   1_455 S
Ni1    N1      1.895   1_545 S
Ni1    N3      1.895   1_445 S
C169   C170    1.412   .     A
C169   C174    1.394   .     A
C169   H17     1.084   .     S
C170   C171    1.432   .     A
C170   C205    1.403   .     A
C171   C172    1.411   .     A
C171   C208    1.403   .     A
C172   C173    1.394   .     A
C172   H18     1.084   .     S
C173   C174    1.358   .     A
C173   C176    1.377   .     A
C174   C175    1.377   .     A
C175   N9      1.359   .     A
C175   N16     1.338   .     A
N9     C176    1.359   .     A
N9     Ni2     1.895   .     S
C176   N10     1.338   .     A
N10    C177    1.338   1_554 A
C177   N10     1.338   1_556 A
C177   N11     1.359   .     A
C177   C180    1.377   .     A
N11    C178    1.359   .     A
N11    Ni2     1.895   1_556 S
C178   C179    1.377   .     A
C178   N13     1.338   .     A
C179   C180    1.358   .     A
C179   C188    1.394   .     A
C180   C185    1.394   .     A
N12    C181    1.359   .     A
N12    C184    1.359   .     A
N12    Ni2     1.895   1_566 S
C181   N13     1.338   1_565 A
C181   C182    1.377   .     A
N13    C181    1.338   1_545 A
C182   C183    1.358   .     A
C182   C192    1.394   .     A
C183   C184    1.377   .     A
C183   C189    1.394   .     A
C184   N15     1.338   1_556 A
C185   C186    1.411   .     A
C185   H19     1.084   .     S
C186   C187    1.432   .     A
C186   C209    1.403   .     A
C187   C188    1.412   .     A
C187   C212    1.403   .     A
C188   H20     1.084   .     S
C189   C190    1.412   .     A
C189   H21     1.084   .     S
C190   C191    1.432   .     A
C190   C213    1.403   .     A
C191   C192    1.412   .     A
C191   C216    1.403   .     A
C192   H22     1.084   .     S
N14    C193    1.359   .     A
N14    C196    1.359   .     A
N14    Ni2     1.895   1_565 S
C193   N15     1.338   .     A
C193   C194    1.377   .     A
N15    C184    1.338   1_554 A
C194   C195    1.358   .     A
C194   C200    1.394   .     A
C195   C196    1.377   .     A
C195   C197    1.394   .     A
C196   N16     1.338   1_565 A
C197   C198    1.412   .     A
C197   H23     1.084   .     S
C198   C199    1.432   .     A
C198   C201    1.403   .     A
C199   C200    1.412   .     A
C199   C204    1.403   .     A
C200   H24     1.084   .     S
N16    C196    1.338   1_545 A
C201   C202    1.397   .     A
C201   H25     1.084   .     S
C202   C203    1.412   .     A
C202   O129    1.395   .     S
C203   C204    1.397   .     A
C203   O130    1.395   .     S
C204   H26     1.084   .     S
C205   C206    1.397   .     A
C205   H27     1.084   .     S
C206   C207    1.412   .     A
C206   O131    1.395   .     S
C207   C208    1.397   .     A
C207   O132    1.395   .     S
C208   H28     1.084   .     S
C209   C210    1.397   .     A
C209   H29     1.084   .     S
C210   C211    1.412   .     A
C210   O133    1.395   .     S
C211   C212    1.397   .     A
C211   O134    1.395   .     S
C212   H30     1.084   .     S
C213   C214    1.397   .     A
C213   H31     1.084   .     S
C214   C215    1.412   .     A
C214   O135    1.395   .     S
C215   C216    1.397   .     A
C215   O136    1.395   .     S
C216   H32     1.084   .     S
O129   Zn31    1.800   .     S
O130   Zn31    1.800   .     S
O131   Zn29    1.800   .     S
O132   Zn29    1.800   .     S
O133   Zn35    1.800   .     S
O134   Zn35    1.800   .     S
O135   Zn33    1.800   .     S
O136   Zn33    1.800   .     S
Ni2    N14     1.895   1_545 S
Ni2    N11     1.895   1_554 S
Ni2    N12     1.895   1_544 S
C217   C218    1.412   .     A
C217   C222    1.394   .     A
C217   H33     1.084   .     S
C218   C219    1.432   .     A
C218   C253    1.403   .     A
C219   C220    1.411   .     A
C219   C256    1.403   .     A
C220   C221    1.394   .     A
C220   H34     1.084   .     S
C221   C222    1.358   .     A
C221   C224    1.377   .     A
C222   C223    1.377   .     A
C223   N17     1.359   .     A
C223   N24     1.338   .     A
N17    C224    1.359   .     A
N17    Ni3     1.895   1_655 S
C224   N18     1.338   1_655 A
N18    C224    1.338   1_455 A
N18    C225    1.338   .     A
C225   N19     1.359   .     A
C225   C228    1.377   .     A
N19    C226    1.359   .     A
N19    Ni3     1.895   .     S
C226   C227    1.377   .     A
C226   N21     1.338   .     A
C227   C228    1.358   .     A
C227   C236    1.394   .     A
C228   C233    1.394   .     A
N20    C229    1.359   .     A
N20    C232    1.359   .     A
N20    Ni3     1.895   1_556 S
C229   N21     1.338   1_556 A
C229   C230    1.377   .     A
N21    C229    1.338   1_554 A
C230   C231    1.358   .     A
C230   C240    1.394   .     A
C231   C232    1.377   .     A
C231   C237    1.394   .     A
C232   N23     1.338   .     A
C233   C234    1.411   .     A
C233   H35     1.084   .     S
C234   C235    1.432   .     A
C234   C257    1.403   .     A
C235   C236    1.412   .     A
C235   C260    1.403   .     A
C236   H36     1.084   .     S
C237   C238    1.411   .     A
C237   H37     1.084   .     S
C238   C239    1.432   .     A
C238   C261    1.403   .     A
C239   C240    1.412   .     A
C239   C264    1.403   .     A
C240   H38     1.084   .     S
N22    C241    1.359   .     A
N22    C244    1.359   .     A
N22    Ni3     1.895   1_656 S
C241   N23     1.338   1_655 A
C241   C242    1.377   .     A
N23    C241    1.338   1_455 A
C242   C243    1.358   .     A
C242   C248    1.394   .     A
C243   C244    1.377   .     A
C243   C245    1.394   .     A
C244   N24     1.338   1_556 A
C245   C246    1.412   .     A
C245   H39     1.084   .     S
C246   C247    1.432   .     A
C246   C249    1.403   .     A
C247   C248    1.411   .     A
C247   C252    1.403   .     A
C248   H40     1.084   .     S
N24    C244    1.338   1_554 A
C249   C250    1.397   .     A
C249   H41     1.084   .     S
C250   C251    1.412   .     A
C250   O137    1.395   .     S
C251   C252    1.397   .     A
C251   O138    1.395   .     S
C252   H42     1.084   .     S
C253   C254    1.397   .     A
C253   H43     1.084   .     S
C254   C255    1.412   .     A
C254   O139    1.395   .     S
C255   C256    1.397   .     A
C255   O140    1.395   .     S
C256   H44     1.084   .     S
C257   C258    1.397   .     A
C257   H45     1.084   .     S
C258   C259    1.412   .     A
C258   O141    1.395   .     S
C259   C260    1.397   .     A
C259   O142    1.395   .     S
C260   H46     1.084   .     S
C261   C262    1.397   .     A
C261   H47     1.084   .     S
C262   C263    1.412   .     A
C262   O143    1.395   .     S
C263   C264    1.397   .     A
C263   O144    1.395   .     S
C264   H48     1.084   .     S
O137   Zn36    1.800   .     S
O138   Zn36    1.800   .     S
O139   Zn30    1.800   .     S
O140   Zn30    1.800   .     S
O141   Zn32    1.800   .     S
O142   Zn32    1.800   .     S
O143   Zn34    1.800   .     S
O144   Zn34    1.800   .     S
Ni3    N17     1.895   1_455 S
Ni3    N20     1.895   1_554 S
Ni3    N22     1.895   1_454 S
