data_tfe-TP_O-PcMN_O-Zntet
_audit_creation_date              2021-11-06
_audit_creation_method            'Materials Studio'
_symmetry_space_group_name_H-M    'P1'
_symmetry_Int_Tables_number       1
_symmetry_cell_setting            triclinic
loop_
_symmetry_equiv_pos_as_xyz
  x,y,z
_cell_length_a                    54.0661
_cell_length_b                    53.9612
_cell_length_c                    54.0417
_cell_angle_alpha                 90.0055
_cell_angle_beta                  89.9968
_cell_angle_gamma                 90.0061
loop_
_atom_site_label
_atom_site_type_symbol
_atom_site_fract_x
_atom_site_fract_y
_atom_site_fract_z
_atom_site_U_iso_or_equiv
_atom_site_adp_type
_atom_site_occupancy
C1     C     0.29096   0.31149   0.32840   0.00000  Uiso   1.00
C2     C     0.31037   0.29348   0.32917   0.00000  Uiso   1.00
C3     C     0.32928   0.29368   0.31071   0.00000  Uiso   1.00
C4     C     0.32864   0.31172   0.29136   0.00000  Uiso   1.00
C5     C     0.31009   0.33050   0.29141   0.00000  Uiso   1.00
C6     C     0.29075   0.32993   0.30943   0.00000  Uiso   1.00
C7     C     0.34674   0.31034   0.27230   0.00000  Uiso   1.00
C8     C     0.36582   0.29313   0.27312   0.00000  Uiso   1.00
C9     C     0.36720   0.27630   0.29271   0.00000  Uiso   1.00
C10    C     0.34916   0.27638   0.31102   0.00000  Uiso   1.00
C11    C     0.27257   0.31087   0.34725   0.00000  Uiso   1.00
C12    C     0.27320   0.29342   0.36613   0.00000  Uiso   1.00
C13    C     0.29205   0.27575   0.36678   0.00000  Uiso   1.00
C14    C     0.31016   0.27563   0.34856   0.00000  Uiso   1.00
C15    C     0.27190   0.34830   0.30809   0.00000  Uiso   1.00
C16    C     0.27276   0.36728   0.29074   0.00000  Uiso   1.00
C17    C     0.29238   0.36855   0.27396   0.00000  Uiso   1.00
C18    C     0.31067   0.35048   0.27423   0.00000  Uiso   1.00
H1     H     0.34658   0.32210   0.25623   0.00000  Uiso   1.00
O1     O     0.38391   0.29277   0.25469   0.00000  Uiso   1.00
O2     O     0.38678   0.25946   0.29372   0.00000  Uiso   1.00
H2     H     0.35167   0.26272   0.32527   0.00000  Uiso   1.00
H3     H     0.25753   0.32383   0.34837   0.00000  Uiso   1.00
O3     O     0.25527   0.29362   0.38473   0.00000  Uiso   1.00
O4     O     0.29273   0.25850   0.38603   0.00000  Uiso   1.00
H4     H     0.32375   0.26122   0.35043   0.00000  Uiso   1.00
H5     H     0.25620   0.34884   0.32026   0.00000  Uiso   1.00
O5     O     0.25452   0.38560   0.29041   0.00000  Uiso   1.00
O6     O     0.29361   0.38823   0.25723   0.00000  Uiso   1.00
H6     H     0.32547   0.35325   0.26122   0.00000  Uiso   1.00
C19    C     0.70980   0.32994   0.30944   0.00000  Uiso   1.00
C20    C     0.69045   0.33052   0.29144   0.00000  Uiso   1.00
C21    C     0.67191   0.31173   0.29139   0.00000  Uiso   1.00
C22    C     0.67131   0.29364   0.31069   0.00000  Uiso   1.00
C23    C     0.69023   0.29345   0.32914   0.00000  Uiso   1.00
C24    C     0.70959   0.31152   0.32842   0.00000  Uiso   1.00
C25    C     0.65145   0.27631   0.31099   0.00000  Uiso   1.00
C26    C     0.63339   0.27625   0.29270   0.00000  Uiso   1.00
C27    C     0.63472   0.29314   0.27316   0.00000  Uiso   1.00
C28    C     0.65377   0.31038   0.27235   0.00000  Uiso   1.00
C29    C     0.72870   0.34826   0.30804   0.00000  Uiso   1.00
C30    C     0.72781   0.36727   0.29073   0.00000  Uiso   1.00
C31    C     0.70815   0.36858   0.27400   0.00000  Uiso   1.00
C32    C     0.68985   0.35052   0.27428   0.00000  Uiso   1.00
C33    C     0.72790   0.31100   0.34735   0.00000  Uiso   1.00
C34    C     0.72733   0.29349   0.36617   0.00000  Uiso   1.00
C35    C     0.70858   0.27569   0.36673   0.00000  Uiso   1.00
C36    C     0.69050   0.27553   0.34848   0.00000  Uiso   1.00
H7     H     0.64897   0.26263   0.32522   0.00000  Uiso   1.00
O7     O     0.61382   0.25939   0.29370   0.00000  Uiso   1.00
O8     O     0.61659   0.29281   0.25476   0.00000  Uiso   1.00
H8     H     0.65389   0.32218   0.25631   0.00000  Uiso   1.00
H9     H     0.74447   0.34872   0.32013   0.00000  Uiso   1.00
O9     O     0.74608   0.38555   0.29036   0.00000  Uiso   1.00
O10    O     0.70690   0.38828   0.25730   0.00000  Uiso   1.00
H10    H     0.67503   0.35330   0.26129   0.00000  Uiso   1.00
H11    H     0.74280   0.32410   0.34858   0.00000  Uiso   1.00
O11    O     0.74521   0.29375   0.38482   0.00000  Uiso   1.00
O12    O     0.70796   0.25838   0.38593   0.00000  Uiso   1.00
H12    H     0.67698   0.26105   0.35027   0.00000  Uiso   1.00
C37    C     0.70972   0.69291   0.32830   0.00000  Uiso   1.00
C38    C     0.69012   0.71069   0.32930   0.00000  Uiso   1.00
C39    C     0.67127   0.71060   0.31077   0.00000  Uiso   1.00
C40    C     0.67184   0.69249   0.29148   0.00000  Uiso   1.00
C41    C     0.69044   0.67376   0.29146   0.00000  Uiso   1.00
C42    C     0.70986   0.67442   0.30939   0.00000  Uiso   1.00
C43    C     0.65360   0.69375   0.27253   0.00000  Uiso   1.00
C44    C     0.63460   0.71105   0.27330   0.00000  Uiso   1.00
C45    C     0.63348   0.72817   0.29266   0.00000  Uiso   1.00
C46    C     0.65162   0.72817   0.31087   0.00000  Uiso   1.00
C47    C     0.72838   0.69381   0.34689   0.00000  Uiso   1.00
C48    C     0.72761   0.71107   0.36594   0.00000  Uiso   1.00
C49    C     0.70831   0.72822   0.36708   0.00000  Uiso   1.00
C50    C     0.69001   0.72816   0.34905   0.00000  Uiso   1.00
C51    C     0.72867   0.65598   0.30809   0.00000  Uiso   1.00
C52    C     0.72778   0.63699   0.29076   0.00000  Uiso   1.00
C53    C     0.70817   0.63573   0.27398   0.00000  Uiso   1.00
C54    C     0.68987   0.65378   0.27428   0.00000  Uiso   1.00
H13    H     0.65359   0.68185   0.25656   0.00000  Uiso   1.00
O13    O     0.61637   0.71129   0.25500   0.00000  Uiso   1.00
O14    O     0.61406   0.74520   0.29354   0.00000  Uiso   1.00
H14    H     0.64947   0.74225   0.32476   0.00000  Uiso   1.00
H15    H     0.74379   0.68128   0.34761   0.00000  Uiso   1.00
O15    O     0.74580   0.71113   0.38429   0.00000  Uiso   1.00
O16    O     0.70740   0.74516   0.38660   0.00000  Uiso   1.00
H16    H     0.67594   0.74201   0.35145   0.00000  Uiso   1.00
H17    H     0.74429   0.65533   0.32036   0.00000  Uiso   1.00
O17    O     0.74600   0.61864   0.29047   0.00000  Uiso   1.00
O18    O     0.70694   0.61605   0.25724   0.00000  Uiso   1.00
H18    H     0.67508   0.65098   0.26127   0.00000  Uiso   1.00
C55    C     0.29075   0.67436   0.30945   0.00000  Uiso   1.00
C56    C     0.31003   0.67386   0.29137   0.00000  Uiso   1.00
C57    C     0.32858   0.69264   0.29134   0.00000  Uiso   1.00
C58    C     0.32930   0.71058   0.31078   0.00000  Uiso   1.00
C59    C     0.31038   0.71078   0.32922   0.00000  Uiso   1.00
C60    C     0.29096   0.69278   0.32843   0.00000  Uiso   1.00
C61    C     0.34930   0.72775   0.31120   0.00000  Uiso   1.00
C62    C     0.36728   0.72791   0.29283   0.00000  Uiso   1.00
C63    C     0.36574   0.71126   0.27309   0.00000  Uiso   1.00
C64    C     0.34660   0.69411   0.27221   0.00000  Uiso   1.00
C65    C     0.27194   0.65593   0.30814   0.00000  Uiso   1.00
C66    C     0.27279   0.63698   0.29075   0.00000  Uiso   1.00
C67    C     0.29235   0.63580   0.27389   0.00000  Uiso   1.00
C68    C     0.31059   0.65392   0.27414   0.00000  Uiso   1.00
C69    C     0.27255   0.69342   0.34727   0.00000  Uiso   1.00
C70    C     0.27319   0.71086   0.36615   0.00000  Uiso   1.00
C71    C     0.29205   0.72853   0.36682   0.00000  Uiso   1.00
C72    C     0.31016   0.72866   0.34859   0.00000  Uiso   1.00
H19    H     0.35195   0.74122   0.32561   0.00000  Uiso   1.00
O19    O     0.38695   0.74464   0.29393   0.00000  Uiso   1.00
O20    O     0.38375   0.71173   0.25458   0.00000  Uiso   1.00
H20    H     0.34632   0.68248   0.25604   0.00000  Uiso   1.00
H21    H     0.25630   0.65530   0.32040   0.00000  Uiso   1.00
O21    O     0.25459   0.61862   0.29045   0.00000  Uiso   1.00
O22    O     0.29357   0.61615   0.25712   0.00000  Uiso   1.00
H22    H     0.32537   0.65120   0.26109   0.00000  Uiso   1.00
H23    H     0.25748   0.68049   0.34835   0.00000  Uiso   1.00
O23    O     0.25524   0.71069   0.38473   0.00000  Uiso   1.00
O24    O     0.29274   0.74578   0.38607   0.00000  Uiso   1.00
H24    H     0.32370   0.74312   0.35040   0.00000  Uiso   1.00
C73    C     0.31017   0.71097   0.67181   0.00000  Uiso   1.00
C74    C     0.29100   0.69270   0.67236   0.00000  Uiso   1.00
C75    C     0.29074   0.67435   0.69139   0.00000  Uiso   1.00
C76    C     0.31015   0.67370   0.70932   0.00000  Uiso   1.00
C77    C     0.32866   0.69252   0.70940   0.00000  Uiso   1.00
C78    C     0.32917   0.71069   0.69017   0.00000  Uiso   1.00
C79    C     0.31084   0.65361   0.72635   0.00000  Uiso   1.00
C80    C     0.29246   0.63563   0.72671   0.00000  Uiso   1.00
C81    C     0.27259   0.63717   0.71025   0.00000  Uiso   1.00
C82    C     0.27166   0.65624   0.69300   0.00000  Uiso   1.00
C83    C     0.30964   0.72915   0.65274   0.00000  Uiso   1.00
C84    C     0.29172   0.72881   0.63433   0.00000  Uiso   1.00
C85    C     0.27339   0.71057   0.63448   0.00000  Uiso   1.00
C86    C     0.27295   0.69292   0.65319   0.00000  Uiso   1.00
C87    C     0.34910   0.72793   0.68978   0.00000  Uiso   1.00
C88    C     0.36719   0.72799   0.70805   0.00000  Uiso   1.00
C89    C     0.36584   0.71111   0.72762   0.00000  Uiso   1.00
C90    C     0.34681   0.69385   0.72841   0.00000  Uiso   1.00
H25    H     0.32580   0.65070   0.73917   0.00000  Uiso   1.00
O25    O     0.29379   0.61582   0.74328   0.00000  Uiso   1.00
O26    O     0.25416   0.61905   0.71079   0.00000  Uiso   1.00
H26    H     0.25565   0.65612   0.68121   0.00000  Uiso   1.00
H27    H     0.32280   0.74401   0.65134   0.00000  Uiso   1.00
O27    O     0.29214   0.74634   0.61533   0.00000  Uiso   1.00
O28    O     0.25578   0.71004   0.61559   0.00000  Uiso   1.00
H28    H     0.25847   0.67938   0.65160   0.00000  Uiso   1.00
H29    H     0.35166   0.74147   0.67542   0.00000  Uiso   1.00
O29    O     0.38678   0.74482   0.70704   0.00000  Uiso   1.00
O30    O     0.38395   0.71147   0.74604   0.00000  Uiso   1.00
H30    H     0.34669   0.68202   0.74444   0.00000  Uiso   1.00
C91    C     0.29092   0.31146   0.67246   0.00000  Uiso   1.00
C92    C     0.31043   0.29357   0.67158   0.00000  Uiso   1.00
C93    C     0.32927   0.29368   0.69011   0.00000  Uiso   1.00
C94    C     0.32867   0.31175   0.70944   0.00000  Uiso   1.00
C95    C     0.31007   0.33051   0.70944   0.00000  Uiso   1.00
C96    C     0.29081   0.33001   0.69133   0.00000  Uiso   1.00
C97    C     0.34688   0.31045   0.72841   0.00000  Uiso   1.00
C98    C     0.36589   0.29317   0.72763   0.00000  Uiso   1.00
C99    C     0.36708   0.27612   0.70821   0.00000  Uiso   1.00
C100   C     0.34898   0.27617   0.68996   0.00000  Uiso   1.00
C101   C     0.27228   0.31055   0.65387   0.00000  Uiso   1.00
C102   C     0.27301   0.29324   0.63487   0.00000  Uiso   1.00
C103   C     0.29219   0.27594   0.63387   0.00000  Uiso   1.00
C104   C     0.31042   0.27595   0.65196   0.00000  Uiso   1.00
C105   C     0.27219   0.34864   0.69240   0.00000  Uiso   1.00
C106   C     0.27297   0.36753   0.70984   0.00000  Uiso   1.00
C107   C     0.29231   0.36852   0.72694   0.00000  Uiso   1.00
C108   C     0.31051   0.35037   0.72677   0.00000  Uiso   1.00
H31    H     0.34692   0.32235   0.74438   0.00000  Uiso   1.00
O31    O     0.38409   0.29290   0.74596   0.00000  Uiso   1.00
O32    O     0.38653   0.25912   0.70731   0.00000  Uiso   1.00
H32    H     0.35126   0.26224   0.67594   0.00000  Uiso   1.00
H33    H     0.25687   0.32309   0.65311   0.00000  Uiso   1.00
O33    O     0.25489   0.29324   0.61645   0.00000  Uiso   1.00
O34    O     0.29304   0.25890   0.61444   0.00000  Uiso   1.00
H34    H     0.32432   0.26189   0.64976   0.00000  Uiso   1.00
H35    H     0.25681   0.34955   0.67985   0.00000  Uiso   1.00
O35    O     0.25490   0.38602   0.70997   0.00000  Uiso   1.00
O36    O     0.29341   0.38805   0.74386   0.00000  Uiso   1.00
H36    H     0.32511   0.35299   0.74002   0.00000  Uiso   1.00
C109   C     0.70980   0.32997   0.69141   0.00000  Uiso   1.00
C110   C     0.69047   0.33053   0.70943   0.00000  Uiso   1.00
C111   C     0.67193   0.31174   0.70948   0.00000  Uiso   1.00
C112   C     0.67126   0.29373   0.69010   0.00000  Uiso   1.00
C113   C     0.69021   0.29350   0.67168   0.00000  Uiso   1.00
C114   C     0.70958   0.31155   0.67242   0.00000  Uiso   1.00
C115   C     0.65129   0.27652   0.68971   0.00000  Uiso   1.00
C116   C     0.63329   0.27639   0.70806   0.00000  Uiso   1.00
C117   C     0.63477   0.29312   0.72774   0.00000  Uiso   1.00
C118   C     0.65387   0.31031   0.72858   0.00000  Uiso   1.00
C119   C     0.72869   0.34831   0.69280   0.00000  Uiso   1.00
C120   C     0.72780   0.36730   0.71014   0.00000  Uiso   1.00
C121   C     0.70815   0.36859   0.72688   0.00000  Uiso   1.00
C122   C     0.68986   0.35052   0.72660   0.00000  Uiso   1.00
C123   C     0.72792   0.31100   0.65352   0.00000  Uiso   1.00
C124   C     0.72733   0.29350   0.63468   0.00000  Uiso   1.00
C125   C     0.70857   0.27571   0.63411   0.00000  Uiso   1.00
C126   C     0.69050   0.27555   0.65237   0.00000  Uiso   1.00
H37    H     0.64868   0.26302   0.67533   0.00000  Uiso   1.00
O37    O     0.61365   0.25962   0.70701   0.00000  Uiso   1.00
O38    O     0.61674   0.29268   0.74624   0.00000  Uiso   1.00
H38    H     0.65410   0.32202   0.74470   0.00000  Uiso   1.00
H39    H     0.74443   0.34880   0.68067   0.00000  Uiso   1.00
O39    O     0.74607   0.38560   0.71049   0.00000  Uiso   1.00
O40    O     0.70690   0.38829   0.74359   0.00000  Uiso   1.00
H40    H     0.67503   0.35330   0.73957   0.00000  Uiso   1.00
H41    H     0.74287   0.32406   0.65232   0.00000  Uiso   1.00
O41    O     0.74521   0.29375   0.61603   0.00000  Uiso   1.00
O42    O     0.70795   0.25840   0.61491   0.00000  Uiso   1.00
H42    H     0.67702   0.26102   0.65064   0.00000  Uiso   1.00
C127   C     0.70935   0.69249   0.67222   0.00000  Uiso   1.00
C128   C     0.69039   0.71097   0.67189   0.00000  Uiso   1.00
C129   C     0.67140   0.71069   0.69024   0.00000  Uiso   1.00
C130   C     0.67196   0.69259   0.70953   0.00000  Uiso   1.00
C131   C     0.69042   0.67372   0.70942   0.00000  Uiso   1.00
C132   C     0.70965   0.67418   0.69129   0.00000  Uiso   1.00
C133   C     0.65389   0.69403   0.72861   0.00000  Uiso   1.00
C134   C     0.63482   0.71125   0.72776   0.00000  Uiso   1.00
C135   C     0.63334   0.72794   0.70804   0.00000  Uiso   1.00
C136   C     0.65137   0.72779   0.68971   0.00000  Uiso   1.00
C137   C     0.72716   0.69249   0.65282   0.00000  Uiso   1.00
C138   C     0.72685   0.71029   0.63426   0.00000  Uiso   1.00
C139   C     0.70892   0.72893   0.63449   0.00000  Uiso   1.00
C140   C     0.69115   0.72940   0.65306   0.00000  Uiso   1.00
C141   C     0.72866   0.65599   0.69279   0.00000  Uiso   1.00
C142   C     0.72780   0.63701   0.71014   0.00000  Uiso   1.00
C143   C     0.70811   0.63567   0.72684   0.00000  Uiso   1.00
C144   C     0.68983   0.65375   0.72659   0.00000  Uiso   1.00
H43    H     0.65406   0.68229   0.74471   0.00000  Uiso   1.00
O43    O     0.61676   0.71170   0.74623   0.00000  Uiso   1.00
O44    O     0.61365   0.74465   0.70691   0.00000  Uiso   1.00
H44    H     0.64865   0.74106   0.67512   0.00000  Uiso   1.00
H45    H     0.74134   0.67866   0.65097   0.00000  Uiso   1.00
O45    O     0.74424   0.70959   0.61516   0.00000  Uiso   1.00
O46    O     0.70872   0.74671   0.61572   0.00000  Uiso   1.00
H46    H     0.67837   0.74462   0.65208   0.00000  Uiso   1.00
H47    H     0.74457   0.65578   0.68085   0.00000  Uiso   1.00
O47    O     0.74614   0.61880   0.71057   0.00000  Uiso   1.00
O48    O     0.70688   0.61597   0.74355   0.00000  Uiso   1.00
H48    H     0.67503   0.65100   0.73961   0.00000  Uiso   1.00
C145   C     0.22673   0.22847   0.52686   0.00000  Uiso   1.00
C146   C     0.24211   0.24547   0.51362   0.00000  Uiso   1.00
C147   C     0.24216   0.24543   0.48720   0.00000  Uiso   1.00
C148   C     0.22661   0.22858   0.47395   0.00000  Uiso   1.00
C149   C     0.21053   0.21228   0.48717   0.00000  Uiso   1.00
C150   C     0.21058   0.21223   0.51365   0.00000  Uiso   1.00
C151   C     0.22770   0.22861   0.44761   0.00000  Uiso   1.00
C152   C     0.24307   0.24475   0.43476   0.00000  Uiso   1.00
C153   C     0.25805   0.26135   0.44772   0.00000  Uiso   1.00
C154   C     0.25766   0.26167   0.47339   0.00000  Uiso   1.00
C155   C     0.22806   0.22827   0.55319   0.00000  Uiso   1.00
C156   C     0.24326   0.24456   0.56604   0.00000  Uiso   1.00
C157   C     0.25780   0.26157   0.55311   0.00000  Uiso   1.00
C158   C     0.25726   0.26203   0.52744   0.00000  Uiso   1.00
C159   C     0.19404   0.19598   0.52618   0.00000  Uiso   1.00
C160   C     0.17831   0.18020   0.51334   0.00000  Uiso   1.00
C161   C     0.17832   0.18018   0.48751   0.00000  Uiso   1.00
C162   C     0.19403   0.19596   0.47466   0.00000  Uiso   1.00
H49    H     0.21712   0.21628   0.43613   0.00000  Uiso   1.00
O49    O     0.24374   0.24448   0.40892   0.00000  Uiso   1.00
O50    O     0.27353   0.27744   0.43471   0.00000  Uiso   1.00
H50    H     0.26997   0.27490   0.48168   0.00000  Uiso   1.00
H51    H     0.21783   0.21560   0.56462   0.00000  Uiso   1.00
O51    O     0.24414   0.24409   0.59188   0.00000  Uiso   1.00
O52    O     0.27300   0.27791   0.56614   0.00000  Uiso   1.00
H52    H     0.26905   0.27574   0.51916   0.00000  Uiso   1.00
H53    H     0.19239   0.19507   0.54597   0.00000  Uiso   1.00
O53    O     0.16230   0.16442   0.52610   0.00000  Uiso   1.00
O54    O     0.16232   0.16437   0.47477   0.00000  Uiso   1.00
H54    H     0.19245   0.19494   0.45487   0.00000  Uiso   1.00
C163   C     0.75824   0.24527   0.51363   0.00000  Uiso   1.00
C164   C     0.77393   0.22856   0.52688   0.00000  Uiso   1.00
C165   C     0.79006   0.21230   0.51365   0.00000  Uiso   1.00
C166   C     0.79007   0.21230   0.48718   0.00000  Uiso   1.00
C167   C     0.77394   0.22856   0.47395   0.00000  Uiso   1.00
C168   C     0.75825   0.24527   0.48720   0.00000  Uiso   1.00
C169   C     0.80655   0.19597   0.47466   0.00000  Uiso   1.00
C170   C     0.82229   0.18022   0.48750   0.00000  Uiso   1.00
C171   C     0.82228   0.18022   0.51333   0.00000  Uiso   1.00
C172   C     0.80653   0.19597   0.52617   0.00000  Uiso   1.00
C173   C     0.74276   0.26152   0.52744   0.00000  Uiso   1.00
C174   C     0.74242   0.26126   0.55311   0.00000  Uiso   1.00
C175   C     0.75752   0.24477   0.56607   0.00000  Uiso   1.00
C176   C     0.77294   0.22868   0.55323   0.00000  Uiso   1.00
C177   C     0.74275   0.26151   0.47339   0.00000  Uiso   1.00
C178   C     0.74242   0.26125   0.44772   0.00000  Uiso   1.00
C179   C     0.75753   0.24476   0.43476   0.00000  Uiso   1.00
C180   C     0.77296   0.22869   0.44760   0.00000  Uiso   1.00
H55    H     0.80807   0.19488   0.45487   0.00000  Uiso   1.00
O55    O     0.83827   0.16442   0.47475   0.00000  Uiso   1.00
O56    O     0.83825   0.16440   0.52609   0.00000  Uiso   1.00
H56    H     0.80804   0.19488   0.54596   0.00000  Uiso   1.00
H57    H     0.73049   0.27479   0.51916   0.00000  Uiso   1.00
O57    O     0.72693   0.27733   0.56613   0.00000  Uiso   1.00
O58    O     0.75695   0.24460   0.59192   0.00000  Uiso   1.00
H58    H     0.78367   0.21651   0.56471   0.00000  Uiso   1.00
H59    H     0.73047   0.27476   0.48167   0.00000  Uiso   1.00
O59    O     0.72692   0.27731   0.43470   0.00000  Uiso   1.00
O60    O     0.75697   0.24459   0.40891   0.00000  Uiso   1.00
H60    H     0.78370   0.21652   0.43612   0.00000  Uiso   1.00
C181   C     0.75829   0.75899   0.48724   0.00000  Uiso   1.00
C182   C     0.77376   0.77590   0.47400   0.00000  Uiso   1.00
C183   C     0.79003   0.79201   0.48722   0.00000  Uiso   1.00
C184   C     0.79017   0.79187   0.51370   0.00000  Uiso   1.00
C185   C     0.77420   0.77545   0.52692   0.00000  Uiso   1.00
C186   C     0.75806   0.75920   0.51365   0.00000  Uiso   1.00
C187   C     0.80644   0.80842   0.52621   0.00000  Uiso   1.00
C188   C     0.82221   0.82413   0.51335   0.00000  Uiso   1.00
C189   C     0.82235   0.82397   0.48751   0.00000  Uiso   1.00
C190   C     0.80662   0.80820   0.47468   0.00000  Uiso   1.00
C191   C     0.74345   0.74214   0.47344   0.00000  Uiso   1.00
C192   C     0.74285   0.74263   0.44777   0.00000  Uiso   1.00
C193   C     0.75721   0.75981   0.43483   0.00000  Uiso   1.00
C194   C     0.77238   0.77614   0.44767   0.00000  Uiso   1.00
C195   C     0.74175   0.74373   0.52740   0.00000  Uiso   1.00
C196   C     0.74179   0.74357   0.55309   0.00000  Uiso   1.00
C197   C     0.75796   0.75899   0.56608   0.00000  Uiso   1.00
C198   C     0.77382   0.77468   0.55327   0.00000  Uiso   1.00
H61    H     0.80759   0.80988   0.54600   0.00000  Uiso   1.00
O61    O     0.83810   0.84005   0.52609   0.00000  Uiso   1.00
O62    O     0.83840   0.83971   0.47475   0.00000  Uiso   1.00
H62    H     0.80829   0.80906   0.45489   0.00000  Uiso   1.00
H63    H     0.73219   0.72801   0.48178   0.00000  Uiso   1.00
O63    O     0.72781   0.72614   0.43475   0.00000  Uiso   1.00
O64    O     0.75627   0.76030   0.40900   0.00000  Uiso   1.00
H64    H     0.78255   0.78886   0.43625   0.00000  Uiso   1.00
H65    H     0.72833   0.73168   0.51902   0.00000  Uiso   1.00
O65    O     0.72570   0.72808   0.56607   0.00000  Uiso   1.00
O66    O     0.75789   0.75863   0.59193   0.00000  Uiso   1.00
H66    H     0.78552   0.78590   0.56479   0.00000  Uiso   1.00
C199   C     0.22647   0.77557   0.52689   0.00000  Uiso   1.00
C200   C     0.24243   0.75912   0.51364   0.00000  Uiso   1.00
C201   C     0.24235   0.75905   0.48721   0.00000  Uiso   1.00
C202   C     0.22665   0.77575   0.47397   0.00000  Uiso   1.00
C203   C     0.21045   0.79194   0.48719   0.00000  Uiso   1.00
C204   C     0.21040   0.79189   0.51367   0.00000  Uiso   1.00
C205   C     0.22773   0.77570   0.44763   0.00000  Uiso   1.00
C206   C     0.24313   0.75960   0.43478   0.00000  Uiso   1.00
C207   C     0.25808   0.74297   0.44773   0.00000  Uiso   1.00
C208   C     0.25767   0.74264   0.47340   0.00000  Uiso   1.00
C209   C     0.22712   0.77510   0.55325   0.00000  Uiso   1.00
C210   C     0.24277   0.75923   0.56608   0.00000  Uiso   1.00
C211   C     0.25844   0.74330   0.55311   0.00000  Uiso   1.00
C212   C     0.25832   0.74325   0.52743   0.00000  Uiso   1.00
C213   C     0.19403   0.80834   0.52619   0.00000  Uiso   1.00
C214   C     0.17828   0.82408   0.51334   0.00000  Uiso   1.00
C215   C     0.17822   0.82401   0.48751   0.00000  Uiso   1.00
C216   C     0.19394   0.80824   0.47467   0.00000  Uiso   1.00
H67    H     0.21708   0.78797   0.43615   0.00000  Uiso   1.00
O67    O     0.24377   0.75985   0.40894   0.00000  Uiso   1.00
O68    O     0.27348   0.72681   0.43472   0.00000  Uiso   1.00
H68    H     0.26963   0.72908   0.48169   0.00000  Uiso   1.00
H69    H     0.21586   0.78677   0.56476   0.00000  Uiso   1.00
O69    O     0.24306   0.75913   0.59193   0.00000  Uiso   1.00
O70    O     0.27423   0.72752   0.56611   0.00000  Uiso   1.00
H70    H     0.27117   0.73055   0.51913   0.00000  Uiso   1.00
H71    H     0.19270   0.80963   0.54597   0.00000  Uiso   1.00
O71    O     0.16236   0.83996   0.52609   0.00000  Uiso   1.00
O72    O     0.16223   0.83981   0.47476   0.00000  Uiso   1.00
H72    H     0.19239   0.80927   0.45488   0.00000  Uiso   1.00
C217   C     0.51347   0.24577   0.24200   0.00000  Uiso   1.00
C218   C     0.52669   0.22838   0.22704   0.00000  Uiso   1.00
C219   C     0.51349   0.21207   0.21097   0.00000  Uiso   1.00
C220   C     0.48703   0.21206   0.21097   0.00000  Uiso   1.00
C221   C     0.47384   0.22838   0.22705   0.00000  Uiso   1.00
C222   C     0.48706   0.24578   0.24199   0.00000  Uiso   1.00
C223   C     0.47450   0.19586   0.19439   0.00000  Uiso   1.00
C224   C     0.48734   0.18004   0.17870   0.00000  Uiso   1.00
C225   C     0.51317   0.18004   0.17870   0.00000  Uiso   1.00
C226   C     0.52601   0.19585   0.19438   0.00000  Uiso   1.00
C227   C     0.52729   0.26249   0.25697   0.00000  Uiso   1.00
C228   C     0.55294   0.26185   0.25770   0.00000  Uiso   1.00
C229   C     0.56584   0.24439   0.24366   0.00000  Uiso   1.00
C230   C     0.55298   0.22789   0.22869   0.00000  Uiso   1.00
C231   C     0.47324   0.26257   0.25688   0.00000  Uiso   1.00
C232   C     0.44759   0.26190   0.25763   0.00000  Uiso   1.00
C233   C     0.43469   0.24438   0.24366   0.00000  Uiso   1.00
C234   C     0.44755   0.22786   0.22872   0.00000  Uiso   1.00
H73    H     0.45472   0.19516   0.19260   0.00000  Uiso   1.00
O73    O     0.47459   0.16429   0.16263   0.00000  Uiso   1.00
O74    O     0.52591   0.16428   0.16264   0.00000  Uiso   1.00
H74    H     0.54579   0.19514   0.19260   0.00000  Uiso   1.00
H75    H     0.51902   0.27636   0.26857   0.00000  Uiso   1.00
O75    O     0.56597   0.27838   0.27269   0.00000  Uiso   1.00
O76    O     0.59165   0.24366   0.24485   0.00000  Uiso   1.00
H76    H     0.56433   0.21475   0.21897   0.00000  Uiso   1.00
H77    H     0.48151   0.27653   0.26838   0.00000  Uiso   1.00
O77    O     0.43456   0.27847   0.27258   0.00000  Uiso   1.00
O78    O     0.40889   0.24363   0.24489   0.00000  Uiso   1.00
H78    H     0.43620   0.21468   0.21905   0.00000  Uiso   1.00
C235   C     0.75860   0.48890   0.24360   0.00000  Uiso   1.00
C236   C     0.77352   0.47566   0.22621   0.00000  Uiso   1.00
C237   C     0.78965   0.48889   0.20997   0.00000  Uiso   1.00
C238   C     0.78966   0.51539   0.20998   0.00000  Uiso   1.00
C239   C     0.77355   0.52861   0.22623   0.00000  Uiso   1.00
C240   C     0.75859   0.51536   0.24359   0.00000  Uiso   1.00
C241   C     0.80629   0.52794   0.19385   0.00000  Uiso   1.00
C242   C     0.82202   0.51508   0.17810   0.00000  Uiso   1.00
C243   C     0.82202   0.48919   0.17810   0.00000  Uiso   1.00
C244   C     0.80628   0.47633   0.19384   0.00000  Uiso   1.00
C245   C     0.74371   0.47504   0.26035   0.00000  Uiso   1.00
C246   C     0.74291   0.44934   0.25963   0.00000  Uiso   1.00
C247   C     0.75683   0.43643   0.24209   0.00000  Uiso   1.00
C248   C     0.77179   0.44933   0.22562   0.00000  Uiso   1.00
C249   C     0.74362   0.52921   0.26028   0.00000  Uiso   1.00
C250   C     0.74285   0.55491   0.25960   0.00000  Uiso   1.00
C251   C     0.75686   0.56783   0.24214   0.00000  Uiso   1.00
C252   C     0.77185   0.55494   0.22569   0.00000  Uiso   1.00
H79    H     0.80809   0.54776   0.19316   0.00000  Uiso   1.00
O79    O     0.83811   0.52785   0.16241   0.00000  Uiso   1.00
O80    O     0.83811   0.47643   0.16240   0.00000  Uiso   1.00
H80    H     0.80808   0.45651   0.19316   0.00000  Uiso   1.00
H81    H     0.73226   0.48332   0.27433   0.00000  Uiso   1.00
O81    O     0.72799   0.43627   0.27618   0.00000  Uiso   1.00
O82    O     0.75558   0.41059   0.24129   0.00000  Uiso   1.00
H82    H     0.78141   0.43798   0.21241   0.00000  Uiso   1.00
H83    H     0.73205   0.52092   0.27416   0.00000  Uiso   1.00
O83    O     0.72787   0.56798   0.27610   0.00000  Uiso   1.00
O84    O     0.75565   0.59368   0.24138   0.00000  Uiso   1.00
H84    H     0.78155   0.56631   0.21255   0.00000  Uiso   1.00
C253   C     0.47385   0.77600   0.22714   0.00000  Uiso   1.00
C254   C     0.48706   0.75852   0.24199   0.00000  Uiso   1.00
C255   C     0.51348   0.75859   0.24207   0.00000  Uiso   1.00
C256   C     0.52670   0.77587   0.22699   0.00000  Uiso   1.00
C257   C     0.51350   0.79222   0.21095   0.00000  Uiso   1.00
C258   C     0.48704   0.79228   0.21103   0.00000  Uiso   1.00
C259   C     0.55301   0.77624   0.22849   0.00000  Uiso   1.00
C260   C     0.56586   0.75983   0.24357   0.00000  Uiso   1.00
C261   C     0.55294   0.74263   0.25790   0.00000  Uiso   1.00
C262   C     0.52728   0.74208   0.25727   0.00000  Uiso   1.00
C263   C     0.44757   0.77661   0.22893   0.00000  Uiso   1.00
C264   C     0.43470   0.76002   0.24381   0.00000  Uiso   1.00
C265   C     0.44759   0.74231   0.25754   0.00000  Uiso   1.00
C266   C     0.47324   0.74156   0.25668   0.00000  Uiso   1.00
C267   C     0.47450   0.80847   0.19445   0.00000  Uiso   1.00
C268   C     0.48732   0.82426   0.17872   0.00000  Uiso   1.00
C269   C     0.51315   0.82426   0.17870   0.00000  Uiso   1.00
C270   C     0.52601   0.80845   0.19438   0.00000  Uiso   1.00
H85    H     0.56439   0.78918   0.21856   0.00000  Uiso   1.00
O85    O     0.59167   0.76044   0.24463   0.00000  Uiso   1.00
O86    O     0.56596   0.72624   0.27305   0.00000  Uiso   1.00
H86    H     0.51899   0.72851   0.26922   0.00000  Uiso   1.00
H87    H     0.43625   0.78992   0.21941   0.00000  Uiso   1.00
O87    O     0.40891   0.76086   0.24515   0.00000  Uiso   1.00
O88    O     0.43456   0.72563   0.27236   0.00000  Uiso   1.00
H88    H     0.48150   0.72733   0.26784   0.00000  Uiso   1.00
H89    H     0.45471   0.80915   0.19267   0.00000  Uiso   1.00
O89    O     0.47457   0.83999   0.16266   0.00000  Uiso   1.00
O90    O     0.52588   0.84001   0.16263   0.00000  Uiso   1.00
H90    H     0.54579   0.80922   0.19261   0.00000  Uiso   1.00
C271   C     0.22699   0.52861   0.22618   0.00000  Uiso   1.00
C272   C     0.24199   0.51537   0.24351   0.00000  Uiso   1.00
C273   C     0.24196   0.48890   0.24353   0.00000  Uiso   1.00
C274   C     0.22700   0.47566   0.22618   0.00000  Uiso   1.00
C275   C     0.21087   0.48888   0.20995   0.00000  Uiso   1.00
C276   C     0.21086   0.51538   0.20995   0.00000  Uiso   1.00
C277   C     0.22870   0.44932   0.22562   0.00000  Uiso   1.00
C278   C     0.24369   0.43643   0.24208   0.00000  Uiso   1.00
C279   C     0.25767   0.44935   0.25956   0.00000  Uiso   1.00
C280   C     0.25688   0.47506   0.26026   0.00000  Uiso   1.00
C281   C     0.22867   0.55495   0.22565   0.00000  Uiso   1.00
C282   C     0.24369   0.56785   0.24207   0.00000  Uiso   1.00
C283   C     0.25775   0.55493   0.25949   0.00000  Uiso   1.00
C284   C     0.25700   0.52922   0.26016   0.00000  Uiso   1.00
C285   C     0.19422   0.52793   0.19384   0.00000  Uiso   1.00
C286   C     0.17849   0.51507   0.17809   0.00000  Uiso   1.00
C287   C     0.17850   0.48918   0.17808   0.00000  Uiso   1.00
C288   C     0.19424   0.47632   0.19382   0.00000  Uiso   1.00
H91    H     0.21901   0.43796   0.21247   0.00000  Uiso   1.00
O91    O     0.24491   0.41058   0.24131   0.00000  Uiso   1.00
O92    O     0.27262   0.43628   0.27609   0.00000  Uiso   1.00
H92    H     0.26836   0.48334   0.27421   0.00000  Uiso   1.00
H93    H     0.21894   0.56631   0.21254   0.00000  Uiso   1.00
O93    O     0.24486   0.59370   0.24134   0.00000  Uiso   1.00
O94    O     0.27276   0.56800   0.27596   0.00000  Uiso   1.00
H94    H     0.26860   0.52094   0.27400   0.00000  Uiso   1.00
H95    H     0.19243   0.54775   0.19314   0.00000  Uiso   1.00
O95    O     0.16240   0.52783   0.16240   0.00000  Uiso   1.00
O96    O     0.16241   0.47641   0.16239   0.00000  Uiso   1.00
H96    H     0.19245   0.45650   0.19312   0.00000  Uiso   1.00
C289   C     0.47385   0.77589   0.77376   0.00000  Uiso   1.00
C290   C     0.48707   0.75846   0.75886   0.00000  Uiso   1.00
C291   C     0.51349   0.75844   0.75889   0.00000  Uiso   1.00
C292   C     0.52670   0.77596   0.77369   0.00000  Uiso   1.00
C293   C     0.51350   0.79228   0.78976   0.00000  Uiso   1.00
C294   C     0.48705   0.79225   0.78980   0.00000  Uiso   1.00
C295   C     0.55298   0.77658   0.77191   0.00000  Uiso   1.00
C296   C     0.56585   0.76000   0.75704   0.00000  Uiso   1.00
C297   C     0.55296   0.74230   0.74327   0.00000  Uiso   1.00
C298   C     0.52731   0.74156   0.74412   0.00000  Uiso   1.00
C299   C     0.44756   0.77640   0.77209   0.00000  Uiso   1.00
C300   C     0.43470   0.75988   0.75714   0.00000  Uiso   1.00
C301   C     0.44761   0.74238   0.74315   0.00000  Uiso   1.00
C302   C     0.47326   0.74171   0.74392   0.00000  Uiso   1.00
C303   C     0.47452   0.80846   0.80638   0.00000  Uiso   1.00
C304   C     0.48736   0.82427   0.82207   0.00000  Uiso   1.00
C305   C     0.51320   0.82428   0.82206   0.00000  Uiso   1.00
C306   C     0.52603   0.80849   0.80634   0.00000  Uiso   1.00
H97    H     0.56429   0.78991   0.78142   0.00000  Uiso   1.00
O97    O     0.59164   0.76084   0.75570   0.00000  Uiso   1.00
O98    O     0.56599   0.72566   0.72841   0.00000  Uiso   1.00
H98    H     0.51905   0.72744   0.73281   0.00000  Uiso   1.00
H99    H     0.43621   0.78958   0.78176   0.00000  Uiso   1.00
O99    O     0.40890   0.76063   0.75590   0.00000  Uiso   1.00
O100   O     0.43459   0.72584   0.72816   0.00000  Uiso   1.00
H100   H     0.48153   0.72782   0.73234   0.00000  Uiso   1.00
H101   H     0.45474   0.80916   0.80817   0.00000  Uiso   1.00
O101   O     0.47463   0.83999   0.83816   0.00000  Uiso   1.00
O102   O     0.52595   0.84000   0.83813   0.00000  Uiso   1.00
H102   H     0.54582   0.80918   0.80813   0.00000  Uiso   1.00
C307   C     0.22711   0.52864   0.77476   0.00000  Uiso   1.00
C308   C     0.24191   0.51543   0.75725   0.00000  Uiso   1.00
C309   C     0.24202   0.48897   0.75731   0.00000  Uiso   1.00
C310   C     0.22690   0.47570   0.77451   0.00000  Uiso   1.00
C311   C     0.21083   0.48892   0.79081   0.00000  Uiso   1.00
C312   C     0.21094   0.51542   0.79093   0.00000  Uiso   1.00
C313   C     0.22841   0.44935   0.77486   0.00000  Uiso   1.00
C314   C     0.24355   0.43649   0.75852   0.00000  Uiso   1.00
C315   C     0.25795   0.44946   0.74141   0.00000  Uiso   1.00
C316   C     0.25733   0.47517   0.74090   0.00000  Uiso   1.00
C317   C     0.22901   0.55496   0.77552   0.00000  Uiso   1.00
C318   C     0.24383   0.56788   0.75893   0.00000  Uiso   1.00
C319   C     0.25741   0.55501   0.74109   0.00000  Uiso   1.00
C320   C     0.25649   0.52931   0.74025   0.00000  Uiso   1.00
C321   C     0.19430   0.52798   0.80703   0.00000  Uiso   1.00
C322   C     0.17854   0.51513   0.82276   0.00000  Uiso   1.00
C323   C     0.17852   0.48925   0.82274   0.00000  Uiso   1.00
C324   C     0.19420   0.47637   0.80695   0.00000  Uiso   1.00
H103   H     0.21843   0.43793   0.78773   0.00000  Uiso   1.00
O103   O     0.24459   0.41063   0.75909   0.00000  Uiso   1.00
O104   O     0.27315   0.43643   0.72509   0.00000  Uiso   1.00
H104   H     0.26938   0.48351   0.72748   0.00000  Uiso   1.00
H105   H     0.21963   0.56626   0.78895   0.00000  Uiso   1.00
O105   O     0.24522   0.59372   0.75987   0.00000  Uiso   1.00
O106   O     0.27211   0.56811   0.72437   0.00000  Uiso   1.00
H106   H     0.26747   0.52105   0.72589   0.00000  Uiso   1.00
H107   H     0.19249   0.54781   0.80767   0.00000  Uiso   1.00
O107   O     0.16247   0.52791   0.83846   0.00000  Uiso   1.00
O108   O     0.16244   0.47649   0.83845   0.00000  Uiso   1.00
H108   H     0.19240   0.45655   0.80767   0.00000  Uiso   1.00
C325   C     0.51348   0.24573   0.75888   0.00000  Uiso   1.00
C326   C     0.52671   0.22829   0.77375   0.00000  Uiso   1.00
C327   C     0.51352   0.21199   0.78985   0.00000  Uiso   1.00
C328   C     0.48706   0.21203   0.78992   0.00000  Uiso   1.00
C329   C     0.47385   0.22836   0.77388   0.00000  Uiso   1.00
C330   C     0.48706   0.24566   0.75881   0.00000  Uiso   1.00
C331   C     0.47456   0.19580   0.80650   0.00000  Uiso   1.00
C332   C     0.48742   0.18000   0.82218   0.00000  Uiso   1.00
C333   C     0.51325   0.18000   0.82215   0.00000  Uiso   1.00
C334   C     0.52607   0.19579   0.80642   0.00000  Uiso   1.00
C335   C     0.52730   0.26265   0.74414   0.00000  Uiso   1.00
C336   C     0.55295   0.26195   0.74332   0.00000  Uiso   1.00
C337   C     0.56585   0.24431   0.75712   0.00000  Uiso   1.00
C338   C     0.55299   0.22773   0.77201   0.00000  Uiso   1.00
C339   C     0.47325   0.26222   0.74368   0.00000  Uiso   1.00
C340   C     0.44759   0.26165   0.74303   0.00000  Uiso   1.00
C341   C     0.43468   0.24438   0.75729   0.00000  Uiso   1.00
C342   C     0.44754   0.22796   0.77235   0.00000  Uiso   1.00
H109   H     0.45478   0.19503   0.80828   0.00000  Uiso   1.00
O109   O     0.47470   0.16426   0.83826   0.00000  Uiso   1.00
O110   O     0.52602   0.16428   0.83821   0.00000  Uiso   1.00
H110   H     0.54586   0.19509   0.80818   0.00000  Uiso   1.00
H111   H     0.51903   0.27680   0.73288   0.00000  Uiso   1.00
O111   O     0.56597   0.27860   0.72846   0.00000  Uiso   1.00
O112   O     0.59165   0.24352   0.75582   0.00000  Uiso   1.00
H112   H     0.56434   0.21447   0.78159   0.00000  Uiso   1.00
H113   H     0.48153   0.27587   0.73182   0.00000  Uiso   1.00
O113   O     0.43457   0.27807   0.72793   0.00000  Uiso   1.00
O114   O     0.40887   0.24374   0.75621   0.00000  Uiso   1.00
H114   H     0.43617   0.21497   0.78225   0.00000  Uiso   1.00
C343   C     0.75862   0.48894   0.75727   0.00000  Uiso   1.00
C344   C     0.77353   0.47570   0.77467   0.00000  Uiso   1.00
C345   C     0.78964   0.48892   0.79092   0.00000  Uiso   1.00
C346   C     0.78963   0.51542   0.79093   0.00000  Uiso   1.00
C347   C     0.77351   0.52864   0.77470   0.00000  Uiso   1.00
C348   C     0.75864   0.51540   0.75726   0.00000  Uiso   1.00
C349   C     0.80627   0.52797   0.80705   0.00000  Uiso   1.00
C350   C     0.82200   0.51511   0.82280   0.00000  Uiso   1.00
C351   C     0.82200   0.48922   0.82279   0.00000  Uiso   1.00
C352   C     0.80628   0.47636   0.80703   0.00000  Uiso   1.00
C353   C     0.74370   0.47509   0.74054   0.00000  Uiso   1.00
C354   C     0.74289   0.44938   0.74126   0.00000  Uiso   1.00
C355   C     0.75682   0.43647   0.75879   0.00000  Uiso   1.00
C356   C     0.77178   0.44937   0.77527   0.00000  Uiso   1.00
C357   C     0.74379   0.52926   0.74048   0.00000  Uiso   1.00
C358   C     0.74297   0.55496   0.74123   0.00000  Uiso   1.00
C359   C     0.75682   0.56786   0.75883   0.00000  Uiso   1.00
C360   C     0.77174   0.55496   0.77533   0.00000  Uiso   1.00
H115   H     0.80810   0.54779   0.80770   0.00000  Uiso   1.00
O115   O     0.83808   0.52787   0.83849   0.00000  Uiso   1.00
O116   O     0.83808   0.47646   0.83848   0.00000  Uiso   1.00
H116   H     0.80810   0.45654   0.80768   0.00000  Uiso   1.00
H117   H     0.73219   0.48338   0.72662   0.00000  Uiso   1.00
O117   O     0.72796   0.43631   0.72472   0.00000  Uiso   1.00
O118   O     0.75557   0.41062   0.75958   0.00000  Uiso   1.00
H118   H     0.78138   0.43802   0.78849   0.00000  Uiso   1.00
H119   H     0.73239   0.52098   0.72646   0.00000  Uiso   1.00
O119   O     0.72808   0.56804   0.72466   0.00000  Uiso   1.00
O120   O     0.75554   0.59371   0.75966   0.00000  Uiso   1.00
H120   H     0.78129   0.56630   0.78861   0.00000  Uiso   1.00
C361   C     0.08732   0.95214   0.50039   0.00000  Uiso   1.00
C362   C     0.09407   0.92687   0.50041   0.00000  Uiso   1.00
C363   C     0.07535   0.90811   0.50047   0.00000  Uiso   1.00
C364   C     0.05013   0.91489   0.50049   0.00000  Uiso   1.00
C365   C     0.04441   0.94008   0.50046   0.00000  Uiso   1.00
C366   C     0.06218   0.95788   0.50042   0.00000  Uiso   1.00
C367   C     0.05000   0.98029   0.50040   0.00000  Uiso   1.00
N1     N     0.02503   0.97732   0.50043   0.00000  Uiso   1.00
C368   C     0.02206   0.95230   0.50047   0.00000  Uiso   1.00
N2     N     0.00025   0.94059   0.50049   0.00000  Uiso   1.00
C369   C     0.97843   0.95230   0.50047   0.00000  Uiso   1.00
N3     N     0.97546   0.97732   0.50042   0.00000  Uiso   1.00
C370   C     0.95050   0.98029   0.50037   0.00000  Uiso   1.00
C371   C     0.93831   0.95788   0.50037   0.00000  Uiso   1.00
C372   C     0.95608   0.94009   0.50045   0.00000  Uiso   1.00
N4     N     0.97547   0.02698   0.50039   0.00000  Uiso   1.00
C373   C     0.95050   0.02401   0.50036   0.00000  Uiso   1.00
N5     N     0.93881   0.00215   0.50034   0.00000  Uiso   1.00
C374   C     0.93832   0.04641   0.50036   0.00000  Uiso   1.00
C375   C     0.95609   0.06421   0.50039   0.00000  Uiso   1.00
C376   C     0.97844   0.05199   0.50040   0.00000  Uiso   1.00
C377   C     0.95037   0.91489   0.50050   0.00000  Uiso   1.00
C378   C     0.92516   0.90811   0.50045   0.00000  Uiso   1.00
C379   C     0.90643   0.92686   0.50034   0.00000  Uiso   1.00
C380   C     0.91318   0.95213   0.50031   0.00000  Uiso   1.00
C381   C     0.95038   0.08940   0.50040   0.00000  Uiso   1.00
C382   C     0.92517   0.09619   0.50039   0.00000  Uiso   1.00
C383   C     0.90644   0.07743   0.50037   0.00000  Uiso   1.00
C384   C     0.91318   0.05216   0.50035   0.00000  Uiso   1.00
N6     N     0.02503   0.02698   0.50041   0.00000  Uiso   1.00
C385   C     0.02207   0.05199   0.50042   0.00000  Uiso   1.00
N7     N     0.00025   0.06370   0.50042   0.00000  Uiso   1.00
C386   C     0.04442   0.06421   0.50041   0.00000  Uiso   1.00
C387   C     0.06218   0.04641   0.50040   0.00000  Uiso   1.00
C388   C     0.05000   0.02401   0.50040   0.00000  Uiso   1.00
C389   C     0.08732   0.05216   0.50040   0.00000  Uiso   1.00
C390   C     0.09408   0.07743   0.50041   0.00000  Uiso   1.00
C391   C     0.07535   0.09619   0.50041   0.00000  Uiso   1.00
C392   C     0.05014   0.08940   0.50041   0.00000  Uiso   1.00
N8     N     0.06169   0.00215   0.50039   0.00000  Uiso   1.00
H121   H     0.10110   0.96671   0.50036   0.00000  Uiso   1.00
H122   H     0.03557   0.90109   0.50053   0.00000  Uiso   1.00
H123   H     0.96493   0.90110   0.50056   0.00000  Uiso   1.00
H124   H     0.89939   0.96670   0.50024   0.00000  Uiso   1.00
H125   H     0.96494   0.10320   0.50042   0.00000  Uiso   1.00
H126   H     0.89939   0.03759   0.50034   0.00000  Uiso   1.00
H127   H     0.10110   0.03758   0.50040   0.00000  Uiso   1.00
H128   H     0.03558   0.10320   0.50041   0.00000  Uiso   1.00
C393   C     0.11909   0.08430   0.50043   0.00000  Uiso   1.00
C394   C     0.12568   0.10933   0.50043   0.00000  Uiso   1.00
C395   C     0.10722   0.12785   0.50042   0.00000  Uiso   1.00
C396   C     0.08223   0.12126   0.50041   0.00000  Uiso   1.00
C397   C     0.11909   0.91999   0.50037   0.00000  Uiso   1.00
C398   C     0.12567   0.89496   0.50040   0.00000  Uiso   1.00
C399   C     0.10721   0.87645   0.50047   0.00000  Uiso   1.00
C400   C     0.08222   0.88304   0.50051   0.00000  Uiso   1.00
C401   C     0.91830   0.88303   0.50053   0.00000  Uiso   1.00
C402   C     0.89331   0.87644   0.50047   0.00000  Uiso   1.00
C403   C     0.87484   0.89494   0.50030   0.00000  Uiso   1.00
C404   C     0.88142   0.91997   0.50025   0.00000  Uiso   1.00
C405   C     0.91831   0.12126   0.50041   0.00000  Uiso   1.00
C406   C     0.89332   0.12785   0.50041   0.00000  Uiso   1.00
C407   C     0.87485   0.10935   0.50040   0.00000  Uiso   1.00
C408   C     0.88142   0.08432   0.50037   0.00000  Uiso   1.00
H129   H     0.13348   0.07032   0.50043   0.00000  Uiso   1.00
O121   O     0.15055   0.11626   0.50046   0.00000  Uiso   1.00
O122   O     0.11416   0.15276   0.50042   0.00000  Uiso   1.00
H130   H     0.06828   0.13568   0.50040   0.00000  Uiso   1.00
H131   H     0.13348   0.93398   0.50033   0.00000  Uiso   1.00
O123   O     0.15054   0.88804   0.50034   0.00000  Uiso   1.00
O124   O     0.11415   0.85154   0.50052   0.00000  Uiso   1.00
H132   H     0.06826   0.86862   0.50056   0.00000  Uiso   1.00
H133   H     0.93226   0.86862   0.50063   0.00000  Uiso   1.00
O125   O     0.88638   0.85152   0.50059   0.00000  Uiso   1.00
O126   O     0.84998   0.88801   0.50021   0.00000  Uiso   1.00
H134   H     0.86702   0.93395   0.50014   0.00000  Uiso   1.00
H135   H     0.93227   0.13567   0.50043   0.00000  Uiso   1.00
O127   O     0.88639   0.15277   0.50043   0.00000  Uiso   1.00
O128   O     0.84999   0.11627   0.50040   0.00000  Uiso   1.00
H136   H     0.86703   0.07034   0.50036   0.00000  Uiso   1.00
Ni1    Ni    0.00025   0.00215   0.50041   0.00000  Uiso   1.00
C409   C     0.50025   0.05211   0.08749   0.00000  Uiso   1.00
C410   C     0.50025   0.07737   0.09427   0.00000  Uiso   1.00
C411   C     0.50026   0.09615   0.07555   0.00000  Uiso   1.00
C412   C     0.50026   0.08938   0.05032   0.00000  Uiso   1.00
C413   C     0.50025   0.06419   0.04458   0.00000  Uiso   1.00
C414   C     0.50025   0.04638   0.06234   0.00000  Uiso   1.00
C415   C     0.50024   0.02398   0.05015   0.00000  Uiso   1.00
N9     N     0.50025   0.02695   0.02517   0.00000  Uiso   1.00
C416   C     0.50026   0.05197   0.02221   0.00000  Uiso   1.00
N10    N     0.50027   0.06368   0.00039   0.00000  Uiso   1.00
C417   C     0.50028   0.05197   0.97856   0.00000  Uiso   1.00
N11    N     0.50028   0.02695   0.97559   0.00000  Uiso   1.00
C418   C     0.50029   0.02398   0.95061   0.00000  Uiso   1.00
C419   C     0.50029   0.04638   0.93843   0.00000  Uiso   1.00
C420   C     0.50029   0.06418   0.95620   0.00000  Uiso   1.00
N12    N     0.50027   0.97729   0.97558   0.00000  Uiso   1.00
C421   C     0.50028   0.98026   0.95061   0.00000  Uiso   1.00
N13    N     0.50028   0.00212   0.93891   0.00000  Uiso   1.00
C422   C     0.50029   0.95786   0.93841   0.00000  Uiso   1.00
C423   C     0.50029   0.94006   0.95618   0.00000  Uiso   1.00
C424   C     0.50028   0.95227   0.97855   0.00000  Uiso   1.00
C425   C     0.50030   0.08937   0.95047   0.00000  Uiso   1.00
C426   C     0.50032   0.09615   0.92524   0.00000  Uiso   1.00
C427   C     0.50032   0.07738   0.90652   0.00000  Uiso   1.00
C428   C     0.50030   0.05212   0.91328   0.00000  Uiso   1.00
C429   C     0.50029   0.91486   0.95044   0.00000  Uiso   1.00
C430   C     0.50030   0.90810   0.92521   0.00000  Uiso   1.00
C431   C     0.50029   0.92687   0.90649   0.00000  Uiso   1.00
C432   C     0.50029   0.95213   0.91326   0.00000  Uiso   1.00
N14    N     0.50027   0.97728   0.02516   0.00000  Uiso   1.00
C433   C     0.50027   0.95227   0.02220   0.00000  Uiso   1.00
N15    N     0.50027   0.94055   0.00037   0.00000  Uiso   1.00
C434   C     0.50026   0.94005   0.04456   0.00000  Uiso   1.00
C435   C     0.50025   0.95786   0.06233   0.00000  Uiso   1.00
C436   C     0.50026   0.98026   0.05014   0.00000  Uiso   1.00
C437   C     0.50023   0.95214   0.08748   0.00000  Uiso   1.00
C438   C     0.50022   0.92688   0.09426   0.00000  Uiso   1.00
C439   C     0.50023   0.90810   0.07554   0.00000  Uiso   1.00
C440   C     0.50024   0.91486   0.05031   0.00000  Uiso   1.00
N16    N     0.50024   0.00212   0.06184   0.00000  Uiso   1.00
H137   H     0.50024   0.03753   0.10127   0.00000  Uiso   1.00
H138   H     0.50026   0.10319   0.03577   0.00000  Uiso   1.00
H139   H     0.50030   0.10318   0.96503   0.00000  Uiso   1.00
H140   H     0.50030   0.03753   0.89949   0.00000  Uiso   1.00
H141   H     0.50029   0.90106   0.96500   0.00000  Uiso   1.00
H142   H     0.50028   0.96671   0.89948   0.00000  Uiso   1.00
H143   H     0.50023   0.96673   0.10126   0.00000  Uiso   1.00
H144   H     0.50025   0.90105   0.03575   0.00000  Uiso   1.00
C441   C     0.50021   0.92003   0.11929   0.00000  Uiso   1.00
C442   C     0.50021   0.89501   0.12591   0.00000  Uiso   1.00
C443   C     0.50021   0.87647   0.10746   0.00000  Uiso   1.00
C444   C     0.50022   0.88303   0.08245   0.00000  Uiso   1.00
C445   C     0.50025   0.08423   0.11931   0.00000  Uiso   1.00
C446   C     0.50025   0.10926   0.12592   0.00000  Uiso   1.00
C447   C     0.50026   0.12779   0.10747   0.00000  Uiso   1.00
C448   C     0.50027   0.12122   0.08245   0.00000  Uiso   1.00
C449   C     0.50034   0.12121   0.91836   0.00000  Uiso   1.00
C450   C     0.50036   0.12779   0.89336   0.00000  Uiso   1.00
C451   C     0.50036   0.10927   0.87490   0.00000  Uiso   1.00
C452   C     0.50033   0.08424   0.88149   0.00000  Uiso   1.00
C453   C     0.50030   0.88303   0.91832   0.00000  Uiso   1.00
C454   C     0.50030   0.87646   0.89331   0.00000  Uiso   1.00
C455   C     0.50029   0.89499   0.87486   0.00000  Uiso   1.00
C456   C     0.50029   0.92001   0.88146   0.00000  Uiso   1.00
H145   H     0.50020   0.93403   0.13367   0.00000  Uiso   1.00
O129   O     0.50020   0.88812   0.15079   0.00000  Uiso   1.00
O130   O     0.50020   0.85157   0.11444   0.00000  Uiso   1.00
H146   H     0.50022   0.86860   0.06850   0.00000  Uiso   1.00
H147   H     0.50025   0.07024   0.13369   0.00000  Uiso   1.00
O131   O     0.50025   0.11615   0.15080   0.00000  Uiso   1.00
O132   O     0.50027   0.15269   0.11444   0.00000  Uiso   1.00
H148   H     0.50028   0.13565   0.06851   0.00000  Uiso   1.00
H149   H     0.50034   0.13564   0.93232   0.00000  Uiso   1.00
O133   O     0.50038   0.15269   0.88640   0.00000  Uiso   1.00
O134   O     0.50036   0.11617   0.85002   0.00000  Uiso   1.00
H150   H     0.50032   0.07026   0.86710   0.00000  Uiso   1.00
H151   H     0.50031   0.86860   0.93227   0.00000  Uiso   1.00
O135   O     0.50031   0.85155   0.88634   0.00000  Uiso   1.00
O136   O     0.50030   0.88809   0.84997   0.00000  Uiso   1.00
H152   H     0.50029   0.93400   0.86707   0.00000  Uiso   1.00
Ni2    Ni    0.50027   0.00212   0.00038   0.00000  Uiso   1.00
C457   C     0.91319   0.50213   0.05035   0.00000  Uiso   1.00
C458   C     0.90643   0.50213   0.07557   0.00000  Uiso   1.00
C459   C     0.92514   0.50213   0.09431   0.00000  Uiso   1.00
C460   C     0.95036   0.50213   0.08754   0.00000  Uiso   1.00
C461   C     0.95610   0.50213   0.06238   0.00000  Uiso   1.00
C462   C     0.93834   0.50213   0.04461   0.00000  Uiso   1.00
C463   C     0.95053   0.50213   0.02224   0.00000  Uiso   1.00
N17    N     0.97549   0.50213   0.02520   0.00000  Uiso   1.00
C464   C     0.97846   0.50213   0.05018   0.00000  Uiso   1.00
N18    N     0.00027   0.50213   0.06188   0.00000  Uiso   1.00
C465   C     0.02209   0.50214   0.05018   0.00000  Uiso   1.00
N19    N     0.02506   0.50215   0.02520   0.00000  Uiso   1.00
C466   C     0.05003   0.50215   0.02223   0.00000  Uiso   1.00
C467   C     0.06222   0.50215   0.04460   0.00000  Uiso   1.00
C468   C     0.04445   0.50214   0.06238   0.00000  Uiso   1.00
N20    N     0.02506   0.50215   0.97560   0.00000  Uiso   1.00
C469   C     0.05003   0.50216   0.97857   0.00000  Uiso   1.00
N21    N     0.06172   0.50216   0.00040   0.00000  Uiso   1.00
C470   C     0.06222   0.50217   0.95621   0.00000  Uiso   1.00
C471   C     0.04446   0.50217   0.93843   0.00000  Uiso   1.00
C472   C     0.02210   0.50216   0.95062   0.00000  Uiso   1.00
C473   C     0.05018   0.50213   0.08753   0.00000  Uiso   1.00
C474   C     0.07540   0.50214   0.09430   0.00000  Uiso   1.00
C475   C     0.09412   0.50215   0.07556   0.00000  Uiso   1.00
C476   C     0.08736   0.50215   0.05033   0.00000  Uiso   1.00
C477   C     0.05021   0.50218   0.91327   0.00000  Uiso   1.00
C478   C     0.07543   0.50220   0.90651   0.00000  Uiso   1.00
C479   C     0.09414   0.50220   0.92526   0.00000  Uiso   1.00
C480   C     0.08736   0.50218   0.95048   0.00000  Uiso   1.00
N22    N     0.97549   0.50214   0.97560   0.00000  Uiso   1.00
C481   C     0.97846   0.50213   0.95062   0.00000  Uiso   1.00
N23    N     0.00028   0.50215   0.93893   0.00000  Uiso   1.00
C482   C     0.95610   0.50213   0.93843   0.00000  Uiso   1.00
C483   C     0.93834   0.50213   0.95621   0.00000  Uiso   1.00
C484   C     0.95053   0.50213   0.97858   0.00000  Uiso   1.00
C485   C     0.91320   0.50213   0.95049   0.00000  Uiso   1.00
C486   C     0.90642   0.50214   0.92527   0.00000  Uiso   1.00
C487   C     0.92513   0.50214   0.90652   0.00000  Uiso   1.00
C488   C     0.95035   0.50213   0.91327   0.00000  Uiso   1.00
N24    N     0.93884   0.50213   0.00041   0.00000  Uiso   1.00
H153   H     0.89942   0.50213   0.03579   0.00000  Uiso   1.00
H154   H     0.96492   0.50213   0.10133   0.00000  Uiso   1.00
H155   H     0.03563   0.50213   0.10132   0.00000  Uiso   1.00
H156   H     0.10114   0.50216   0.03577   0.00000  Uiso   1.00
H157   H     0.03566   0.50218   0.89948   0.00000  Uiso   1.00
H158   H     0.10113   0.50218   0.96505   0.00000  Uiso   1.00
H159   H     0.89942   0.50213   0.96506   0.00000  Uiso   1.00
H160   H     0.96490   0.50213   0.89948   0.00000  Uiso   1.00
C489   C     0.88139   0.50214   0.91842   0.00000  Uiso   1.00
C490   C     0.87479   0.50215   0.89344   0.00000  Uiso   1.00
C491   C     0.89323   0.50215   0.87493   0.00000  Uiso   1.00
C492   C     0.91823   0.50215   0.88149   0.00000  Uiso   1.00
C493   C     0.88141   0.50213   0.08244   0.00000  Uiso   1.00
C494   C     0.87481   0.50213   0.10743   0.00000  Uiso   1.00
C495   C     0.89326   0.50213   0.12592   0.00000  Uiso   1.00
C496   C     0.91826   0.50213   0.11935   0.00000  Uiso   1.00
C497   C     0.08228   0.50213   0.11933   0.00000  Uiso   1.00
C498   C     0.10727   0.50212   0.12591   0.00000  Uiso   1.00
C499   C     0.12573   0.50214   0.10742   0.00000  Uiso   1.00
C500   C     0.11914   0.50215   0.08243   0.00000  Uiso   1.00
C501   C     0.08232   0.50221   0.88148   0.00000  Uiso   1.00
C502   C     0.10732   0.50221   0.87492   0.00000  Uiso   1.00
C503   C     0.12577   0.50221   0.89342   0.00000  Uiso   1.00
C504   C     0.11917   0.50221   0.91841   0.00000  Uiso   1.00
H161   H     0.86702   0.50214   0.93240   0.00000  Uiso   1.00
O137   O     0.84991   0.50216   0.88655   0.00000  Uiso   1.00
O138   O     0.88626   0.50216   0.85006   0.00000  Uiso   1.00
H162   H     0.93217   0.50215   0.86708   0.00000  Uiso   1.00
H163   H     0.86702   0.50213   0.06847   0.00000  Uiso   1.00
O139   O     0.84994   0.50214   0.11433   0.00000  Uiso   1.00
O140   O     0.88630   0.50214   0.15079   0.00000  Uiso   1.00
H164   H     0.93221   0.50213   0.13375   0.00000  Uiso   1.00
H165   H     0.06833   0.50212   0.13373   0.00000  Uiso   1.00
O141   O     0.11423   0.50211   0.15078   0.00000  Uiso   1.00
O142   O     0.15060   0.50213   0.11433   0.00000  Uiso   1.00
H166   H     0.13353   0.50216   0.06846   0.00000  Uiso   1.00
H167   H     0.06839   0.50221   0.86707   0.00000  Uiso   1.00
O143   O     0.11429   0.50223   0.85005   0.00000  Uiso   1.00
O144   O     0.15064   0.50221   0.88652   0.00000  Uiso   1.00
H168   H     0.13354   0.50221   0.93238   0.00000  Uiso   1.00
Ni3    Ni    0.00028   0.50214   0.00040   0.00000  Uiso   1.00
Zn1    Zn    0.26626   0.26845   0.40355   0.00000  Uiso   1.00
Zn2    Zn    0.73433   0.26845   0.40354   0.00000  Uiso   1.00
Zn3    Zn    0.73439   0.73574   0.40361   0.00000  Uiso   1.00
Zn4    Zn    0.26625   0.73584   0.40356   0.00000  Uiso   1.00
Zn5    Zn    0.26624   0.73582   0.59729   0.00000  Uiso   1.00
Zn6    Zn    0.26620   0.26848   0.59728   0.00000  Uiso   1.00
Zn7    Zn    0.73432   0.26846   0.59730   0.00000  Uiso   1.00
Zn8    Zn    0.73419   0.73581   0.59727   0.00000  Uiso   1.00
Zn9    Zn    0.40348   0.26851   0.26640   0.00000  Uiso   1.00
Zn10   Zn    0.73419   0.40512   0.26621   0.00000  Uiso   1.00
Zn11   Zn    0.59707   0.73586   0.26649   0.00000  Uiso   1.00
Zn12   Zn    0.26640   0.59917   0.26615   0.00000  Uiso   1.00
Zn13   Zn    0.40350   0.73576   0.73435   0.00000  Uiso   1.00
Zn14   Zn    0.26646   0.40523   0.73457   0.00000  Uiso   1.00
Zn15   Zn    0.59706   0.26853   0.73445   0.00000  Uiso   1.00
Zn16   Zn    0.73421   0.59918   0.73468   0.00000  Uiso   1.00
Zn17   Zn    0.26637   0.40512   0.26619   0.00000  Uiso   1.00
Zn18   Zn    0.26627   0.59923   0.73465   0.00000  Uiso   1.00
Zn19   Zn    0.40345   0.26838   0.73442   0.00000  Uiso   1.00
Zn20   Zn    0.73417   0.40515   0.73467   0.00000  Uiso   1.00
Zn21   Zn    0.59707   0.73578   0.73438   0.00000  Uiso   1.00
Zn22   Zn    0.73416   0.59914   0.26623   0.00000  Uiso   1.00
Zn23   Zn    0.40349   0.73578   0.26644   0.00000  Uiso   1.00
Zn24   Zn    0.59706   0.26849   0.26643   0.00000  Uiso   1.00
Zn25   Zn    0.14730   0.14945   0.50044   0.00000  Uiso   1.00
Zn26   Zn    0.85326   0.14946   0.50042   0.00000  Uiso   1.00
Zn27   Zn    0.85324   0.85483   0.50041   0.00000  Uiso   1.00
Zn28   Zn    0.14729   0.85484   0.50042   0.00000  Uiso   1.00
Zn29   Zn    0.50025   0.14935   0.14760   0.00000  Uiso   1.00
Zn30   Zn    0.85315   0.50214   0.14749   0.00000  Uiso   1.00
Zn31   Zn    0.50021   0.85492   0.14760   0.00000  Uiso   1.00
Zn32   Zn    0.14738   0.50212   0.14747   0.00000  Uiso   1.00
Zn33   Zn    0.50030   0.85491   0.85318   0.00000  Uiso   1.00
Zn34   Zn    0.14743   0.50221   0.85338   0.00000  Uiso   1.00
Zn35   Zn    0.50037   0.14935   0.85325   0.00000  Uiso   1.00
Zn36   Zn    0.85312   0.50216   0.85340   0.00000  Uiso   1.00
loop_
_geom_bond_atom_site_label_1
_geom_bond_atom_site_label_2
_geom_bond_distance
_geom_bond_site_symmetry_2
_ccdc_geom_bond_type
C1     C2      1.431   .     A
C1     C6      1.428   .     A
C1     C11     1.424   .     A
C2     C3      1.428   .     A
C2     C14     1.424   .     A
C3     C4      1.429   .     A
C3     C10     1.424   .     A
C4     C5      1.426   .     A
C4     C7      1.423   .     A
C5     C6      1.429   .     A
C5     C18     1.423   .     A
C6     C15     1.424   .     A
C7     C8      1.389   .     A
C7     H1      1.076   .     S
C8     C9      1.397   .     A
C8     O1      1.396   .     S
C9     C10     1.389   .     A
C9     O2      1.396   .     S
C10    H2      1.074   .     S
C11    C12     1.389   .     A
C11    H3      1.074   .     S
C12    C13     1.397   .     A
C12    O3      1.396   .     S
C13    C14     1.389   .     A
C13    O4      1.396   .     S
C14    H4      1.074   .     S
C15    C16     1.389   .     A
C15    H5      1.074   .     S
C16    C17     1.397   .     A
C16    O5      1.396   .     S
C17    C18     1.389   .     A
C17    O6      1.396   .     S
C18    H6      1.076   .     S
O1     Zn9     1.798   .     S
O2     Zn9     1.798   .     S
O3     Zn1     1.798   .     S
O4     Zn1     1.798   .     S
O5     Zn17    1.798   .     S
O6     Zn17    1.799   .     S
C19    C20     1.429   .     A
C19    C24     1.428   .     A
C19    C29     1.424   .     A
C20    C21     1.426   .     A
C20    C32     1.423   .     A
C21    C22     1.429   .     A
C21    C28     1.423   .     A
C22    C23     1.428   .     A
C22    C25     1.424   .     A
C23    C24     1.431   .     A
C23    C36     1.424   .     A
C24    C33     1.424   .     A
C25    C26     1.389   .     A
C25    H7      1.074   .     S
C26    C27     1.397   .     A
C26    O7      1.396   .     S
C27    C28     1.389   .     A
C27    O8      1.396   .     S
C28    H8      1.076   .     S
C29    C30     1.389   .     A
C29    H9      1.074   .     S
C30    C31     1.397   .     A
C30    O9      1.396   .     S
C31    C32     1.389   .     A
C31    O10     1.396   .     S
C32    H10     1.076   .     S
C33    C34     1.389   .     A
C33    H11     1.074   .     S
C34    C35     1.397   .     A
C34    O11     1.397   .     S
C35    C36     1.389   .     A
C35    O12     1.396   .     S
C36    H12     1.074   .     S
O7     Zn24    1.798   .     S
O8     Zn24    1.798   .     S
O9     Zn10    1.798   .     S
O10    Zn10    1.798   .     S
O11    Zn2     1.798   .     S
O12    Zn2     1.798   .     S
C37    C38     1.431   .     A
C37    C42     1.429   .     A
C37    C47     1.424   .     A
C38    C39     1.429   .     A
C38    C50     1.424   .     A
C39    C40     1.429   .     A
C39    C46     1.424   .     A
C40    C41     1.426   .     A
C40    C43     1.423   .     A
C41    C42     1.429   .     A
C41    C54     1.423   .     A
C42    C51     1.424   .     A
C43    C44     1.389   .     A
C43    H13     1.076   .     S
C44    C45     1.397   .     A
C44    O13     1.396   .     S
C45    C46     1.389   .     A
C45    O14     1.396   .     S
C46    H14     1.074   .     S
C47    C48     1.389   .     A
C47    H15     1.074   .     S
C48    C49     1.396   .     A
C48    O15     1.397   .     S
C49    C50     1.389   .     A
C49    O16     1.396   .     S
C50    H16     1.074   .     S
C51    C52     1.389   .     A
C51    H17     1.074   .     S
C52    C53     1.397   .     A
C52    O17     1.396   .     S
C53    C54     1.389   .     A
C53    O18     1.396   .     S
C54    H18     1.076   .     S
O13    Zn11    1.798   .     S
O14    Zn11    1.798   .     S
O15    Zn3     1.798   .     S
O16    Zn3     1.798   .     S
O17    Zn22    1.798   .     S
O18    Zn22    1.798   .     S
C55    C56     1.429   .     A
C55    C60     1.428   .     A
C55    C65     1.424   .     A
C56    C57     1.426   .     A
C56    C68     1.423   .     A
C57    C58     1.429   .     A
C57    C64     1.423   .     A
C58    C59     1.428   .     A
C58    C61     1.424   .     A
C59    C60     1.431   .     A
C59    C72     1.424   .     A
C60    C69     1.424   .     A
C61    C62     1.389   .     A
C61    H19     1.075   .     S
C62    C63     1.397   .     A
C62    O19     1.396   .     S
C63    C64     1.389   .     A
C63    O20     1.396   .     S
C64    H20     1.076   .     S
C65    C66     1.389   .     A
C65    H21     1.074   .     S
C66    C67     1.397   .     A
C66    O21     1.396   .     S
C67    C68     1.389   .     A
C67    O22     1.396   .     S
C68    H22     1.076   .     S
C69    C70     1.389   .     A
C69    H23     1.074   .     S
C70    C71     1.397   .     A
C70    O23     1.396   .     S
C71    C72     1.389   .     A
C71    O24     1.396   .     S
C72    H24     1.074   .     S
O19    Zn23    1.798   .     S
O20    Zn23    1.798   .     S
O21    Zn12    1.798   .     S
O22    Zn12    1.799   .     S
O23    Zn4     1.798   .     S
O24    Zn4     1.798   .     S
C73    C74     1.431   .     A
C73    C78     1.428   .     A
C73    C83     1.424   .     A
C74    C75     1.428   .     A
C74    C86     1.423   .     A
C75    C76     1.429   .     A
C75    C82     1.424   .     A
C76    C77     1.426   .     A
C76    C79     1.423   .     A
C77    C78     1.429   .     A
C77    C90     1.423   .     A
C78    C87     1.424   .     A
C79    C80     1.389   .     A
C79    H25     1.076   .     S
C80    C81     1.397   .     A
C80    O25     1.396   .     S
C81    C82     1.390   .     A
C81    O26     1.396   .     S
C82    H26     1.075   .     S
C83    C84     1.389   .     A
C83    H27     1.075   .     S
C84    C85     1.397   .     A
C84    O27     1.396   .     S
C85    C86     1.389   .     A
C85    O28     1.396   .     S
C86    H28     1.075   .     S
C87    C88     1.390   .     A
C87    H29     1.075   .     S
C88    C89     1.397   .     A
C88    O29     1.396   .     S
C89    C90     1.389   .     A
C89    O30     1.396   .     S
C90    H30     1.076   .     S
O25    Zn18    1.798   .     S
O26    Zn18    1.798   .     S
O27    Zn5     1.798   .     S
O28    Zn5     1.798   .     S
O29    Zn13    1.799   .     S
O30    Zn13    1.798   .     S
C91    C92     1.431   .     A
C91    C96     1.429   .     A
C91    C101    1.424   .     A
C92    C93     1.429   .     A
C92    C104    1.424   .     A
C93    C94     1.429   .     A
C93    C100    1.424   .     A
C94    C95     1.427   .     A
C94    C97     1.423   .     A
C95    C96     1.430   .     A
C95    C108    1.423   .     A
C96    C105    1.424   .     A
C97    C98     1.389   .     A
C97    H31     1.075   .     S
C98    C99     1.397   .     A
C98    O31     1.396   .     S
C99    C100    1.389   .     A
C99    O32     1.396   .     S
C100   H32     1.074   .     S
C101   C102    1.389   .     A
C101   H33     1.074   .     S
C102   C103    1.396   .     A
C102   O33     1.397   .     S
C103   C104    1.389   .     A
C103   O34     1.396   .     S
C104   H34     1.074   .     S
C105   C106    1.389   .     A
C105   H35     1.074   .     S
C106   C107    1.397   .     A
C106   O35     1.396   .     S
C107   C108    1.389   .     A
C107   O36     1.396   .     S
C108   H36     1.075   .     S
O31    Zn19    1.798   .     S
O32    Zn19    1.798   .     S
O33    Zn6     1.798   .     S
O34    Zn6     1.798   .     S
O35    Zn14    1.798   .     S
O36    Zn14    1.798   .     S
C109   C110    1.429   .     A
C109   C114    1.428   .     A
C109   C119    1.424   .     A
C110   C111    1.426   .     A
C110   C122    1.423   .     A
C111   C112    1.429   .     A
C111   C118    1.423   .     A
C112   C113    1.428   .     A
C112   C115    1.424   .     A
C113   C114    1.431   .     A
C113   C126    1.424   .     A
C114   C123    1.424   .     A
C115   C116    1.390   .     A
C115   H37     1.075   .     S
C116   C117    1.397   .     A
C116   O37     1.396   .     S
C117   C118    1.389   .     A
C117   O38     1.397   .     S
C118   H38     1.076   .     S
C119   C120    1.389   .     A
C119   H39     1.074   .     S
C120   C121    1.397   .     A
C120   O39     1.396   .     S
C121   C122    1.389   .     A
C121   O40     1.396   .     S
C122   H40     1.076   .     S
C123   C124    1.389   .     A
C123   H41     1.074   .     S
C124   C125    1.397   .     A
C124   O41     1.397   .     S
C125   C126    1.389   .     A
C125   O42     1.396   .     S
C126   H42     1.074   .     S
O37    Zn15    1.799   .     S
O38    Zn15    1.798   .     S
O39    Zn20    1.798   .     S
O40    Zn20    1.798   .     S
O41    Zn7     1.798   .     S
O42    Zn7     1.798   .     S
C127   C128    1.430   .     A
C127   C132    1.428   .     A
C127   C137    1.423   .     A
C128   C129    1.428   .     A
C128   C140    1.423   .     A
C129   C130    1.429   .     A
C129   C136    1.423   .     A
C130   C131    1.426   .     A
C130   C133    1.423   .     A
C131   C132    1.429   .     A
C131   C144    1.423   .     A
C132   C141    1.423   .     A
C133   C134    1.389   .     A
C133   H43     1.076   .     S
C134   C135    1.398   .     A
C134   O43     1.396   .     S
C135   C136    1.390   .     A
C135   O44     1.396   .     S
C136   H44     1.075   .     S
C137   C138    1.389   .     A
C137   H45     1.075   .     S
C138   C139    1.397   .     A
C138   O45     1.396   .     S
C139   C140    1.389   .     A
C139   O46     1.397   .     S
C140   H46     1.075   .     S
C141   C142    1.389   .     A
C141   H47     1.075   .     S
C142   C143    1.398   .     A
C142   O47     1.396   .     S
C143   C144    1.389   .     A
C143   O48     1.396   .     S
C144   H48     1.076   .     S
O43    Zn21    1.798   .     S
O44    Zn21    1.799   .     S
O45    Zn8     1.798   .     S
O46    Zn8     1.799   .     S
O47    Zn16    1.798   .     S
O48    Zn16    1.798   .     S
C145   C146    1.430   .     A
C145   C150    1.428   .     A
C145   C155    1.425   .     A
C146   C147    1.428   .     A
C146   C158    1.424   .     A
C147   C148    1.430   .     A
C147   C154    1.424   .     A
C148   C149    1.428   .     A
C148   C151    1.425   .     A
C149   C150    1.431   .     A
C149   C162    1.424   .     A
C150   C159    1.424   .     A
C151   C152    1.389   .     A
C151   H49     1.074   .     S
C152   C153    1.396   .     A
C152   O49     1.397   .     S
C153   C154    1.388   .     A
C153   O50     1.396   .     S
C154   H50     1.074   .     S
C155   C156    1.389   .     A
C155   H51     1.074   .     S
C156   C157    1.396   .     A
C156   O51     1.397   .     S
C157   C158    1.388   .     A
C157   O52     1.396   .     S
C158   H52     1.074   .     S
C159   C160    1.389   .     A
C159   H53     1.074   .     S
C160   C161    1.396   .     A
C160   O53     1.396   .     S
C161   C162    1.389   .     A
C161   O54     1.396   .     S
C162   H54     1.074   .     S
O49    Zn1     1.800   .     S
O50    Zn1     1.796   .     S
O51    Zn6     1.800   .     S
O52    Zn6     1.796   .     S
O53    Zn25    1.798   .     S
O54    Zn25    1.798   .     S
C163   C164    1.430   .     A
C163   C168    1.428   .     A
C163   C173    1.424   .     A
C164   C165    1.428   .     A
C164   C176    1.425   .     A
C165   C166    1.431   .     A
C165   C172    1.424   .     A
C166   C167    1.428   .     A
C166   C169    1.424   .     A
C167   C168    1.430   .     A
C167   C180    1.425   .     A
C168   C177    1.424   .     A
C169   C170    1.388   .     A
C169   H55     1.074   .     S
C170   C171    1.396   .     A
C170   O55     1.396   .     S
C171   C172    1.388   .     A
C171   O56     1.396   .     S
C172   H56     1.074   .     S
C173   C174    1.388   .     A
C173   H57     1.074   .     S
C174   C175    1.396   .     A
C174   O57     1.396   .     S
C175   C176    1.389   .     A
C175   O58     1.397   .     S
C176   H58     1.074   .     S
C177   C178    1.388   .     A
C177   H59     1.074   .     S
C178   C179    1.396   .     A
C178   O59     1.396   .     S
C179   C180    1.389   .     A
C179   O60     1.397   .     S
C180   H60     1.074   .     S
O55    Zn26    1.798   .     S
O56    Zn26    1.798   .     S
O57    Zn7     1.796   .     S
O58    Zn7     1.800   .     S
O59    Zn2     1.796   .     S
O60    Zn2     1.800   .     S
C181   C182    1.429   .     A
C181   C186    1.428   .     A
C181   C191    1.423   .     A
C182   C183    1.428   .     A
C182   C194    1.425   .     A
C183   C184    1.431   .     A
C183   C190    1.424   .     A
C184   C185    1.429   .     A
C184   C187    1.424   .     A
C185   C186    1.430   .     A
C185   C198    1.425   .     A
C186   C195    1.423   .     A
C187   C188    1.389   .     A
C187   H61     1.074   .     S
C188   C189    1.396   .     A
C188   O61     1.396   .     S
C189   C190    1.389   .     A
C189   O62     1.396   .     S
C190   H62     1.074   .     S
C191   C192    1.388   .     A
C191   H63     1.075   .     S
C192   C193    1.397   .     A
C192   O63     1.396   .     S
C193   C194    1.390   .     A
C193   O64     1.397   .     S
C194   H64     1.075   .     S
C195   C196    1.388   .     A
C195   H65     1.074   .     S
C196   C197    1.396   .     A
C196   O65     1.396   .     S
C197   C198    1.390   .     A
C197   O66     1.397   .     S
C198   H66     1.074   .     S
O61    Zn27    1.798   .     S
O62    Zn27    1.798   .     S
O63    Zn3     1.796   .     S
O64    Zn3     1.800   .     S
O65    Zn8     1.797   .     S
O66    Zn8     1.800   .     S
C199   C200    1.430   .     A
C199   C204    1.429   .     A
C199   C209    1.425   .     A
C200   C201    1.428   .     A
C200   C212    1.424   .     A
C201   C202    1.430   .     A
C201   C208    1.424   .     A
C202   C203    1.428   .     A
C202   C205    1.425   .     A
C203   C204    1.431   .     A
C203   C216    1.424   .     A
C204   C213    1.424   .     A
C205   C206    1.389   .     A
C205   H67     1.074   .     S
C206   C207    1.396   .     A
C206   O67     1.397   .     S
C207   C208    1.388   .     A
C207   O68     1.396   .     S
C208   H68     1.074   .     S
C209   C210    1.389   .     A
C209   H69     1.074   .     S
C210   C211    1.396   .     A
C210   O69     1.397   .     S
C211   C212    1.388   .     A
C211   O70     1.396   .     S
C212   H70     1.074   .     S
C213   C214    1.389   .     A
C213   H71     1.074   .     S
C214   C215    1.396   .     A
C214   O71     1.396   .     S
C215   C216    1.389   .     A
C215   O72     1.396   .     S
C216   H72     1.074   .     S
O67    Zn4     1.800   .     S
O68    Zn4     1.796   .     S
O69    Zn5     1.800   .     S
O70    Zn5     1.796   .     S
O71    Zn28    1.798   .     S
O72    Zn28    1.798   .     S
C217   C218    1.430   .     A
C217   C222    1.428   .     A
C217   C227    1.423   .     A
C218   C219    1.428   .     A
C218   C230    1.425   .     A
C219   C220    1.430   .     A
C219   C226    1.424   .     A
C220   C221    1.428   .     A
C220   C223    1.424   .     A
C221   C222    1.430   .     A
C221   C234    1.424   .     A
C222   C231    1.423   .     A
C223   C224    1.389   .     A
C223   H73     1.075   .     S
C224   C225    1.397   .     A
C224   O73     1.396   .     S
C225   C226    1.389   .     A
C225   O74     1.396   .     S
C226   H74     1.075   .     S
C227   C228    1.388   .     A
C227   H75     1.074   .     S
C228   C229    1.396   .     A
C228   O75     1.396   .     S
C229   C230    1.390   .     A
C229   O76     1.397   .     S
C230   H76     1.075   .     S
C231   C232    1.388   .     A
C231   H77     1.074   .     S
C232   C233    1.397   .     A
C232   O77     1.396   .     S
C233   C234    1.389   .     A
C233   O78     1.397   .     S
C234   H78     1.075   .     S
O73    Zn29    1.799   .     S
O74    Zn29    1.798   .     S
O75    Zn24    1.796   .     S
O76    Zn24    1.800   .     S
O77    Zn9     1.796   .     S
O78    Zn9     1.800   .     S
C235   C236    1.430   .     A
C235   C240    1.428   .     A
C235   C245    1.424   .     A
C236   C237    1.428   .     A
C236   C248    1.424   .     A
C237   C238    1.430   .     A
C237   C244    1.424   .     A
C238   C239    1.428   .     A
C238   C241    1.424   .     A
C239   C240    1.430   .     A
C239   C252    1.424   .     A
C240   C249    1.424   .     A
C241   C242    1.389   .     A
C241   H79     1.075   .     S
C242   C243    1.397   .     A
C242   O79     1.397   .     S
C243   C244    1.389   .     A
C243   O80     1.397   .     S
C244   H80     1.075   .     S
C245   C246    1.388   .     A
C245   H81     1.074   .     S
C246   C247    1.397   .     A
C246   O81     1.396   .     S
C247   C248    1.389   .     A
C247   O82     1.397   .     S
C248   H82     1.075   .     S
C249   C250    1.388   .     A
C249   H83     1.074   .     S
C250   C251    1.397   .     A
C250   O83     1.396   .     S
C251   C252    1.389   .     A
C251   O84     1.397   .     S
C252   H84     1.075   .     S
O79    Zn30    1.799   .     S
O80    Zn30    1.799   .     S
O81    Zn10    1.796   .     S
O82    Zn10    1.800   .     S
O83    Zn22    1.796   .     S
O84    Zn22    1.800   .     S
C253   C254    1.430   .     A
C253   C258    1.428   .     A
C253   C263    1.424   .     A
C254   C255    1.428   .     A
C254   C266    1.423   .     A
C255   C256    1.430   .     A
C255   C262    1.423   .     A
C256   C257    1.428   .     A
C256   C259    1.425   .     A
C257   C258    1.430   .     A
C257   C270    1.424   .     A
C258   C267    1.424   .     A
C259   C260    1.389   .     A
C259   H85     1.075   .     S
C260   C261    1.396   .     A
C260   O85     1.397   .     S
C261   C262    1.388   .     A
C261   O86     1.396   .     S
C262   H86     1.074   .     S
C263   C264    1.390   .     A
C263   H87     1.075   .     S
C264   C265    1.397   .     A
C264   O87     1.397   .     S
C265   C266    1.388   .     A
C265   O88     1.396   .     S
C266   H88     1.074   .     S
C267   C268    1.389   .     A
C267   H89     1.075   .     S
C268   C269    1.397   .     A
C268   O89     1.396   .     S
C269   C270    1.389   .     A
C269   O90     1.396   .     S
C270   H90     1.075   .     S
O85    Zn11    1.800   .     S
O86    Zn11    1.796   .     S
O87    Zn23    1.800   .     S
O88    Zn23    1.796   .     S
O89    Zn31    1.798   .     S
O90    Zn31    1.798   .     S
C271   C272    1.430   .     A
C271   C276    1.428   .     A
C271   C281    1.424   .     A
C272   C273    1.428   .     A
C272   C284    1.424   .     A
C273   C274    1.430   .     A
C273   C280    1.424   .     A
C274   C275    1.428   .     A
C274   C277    1.424   .     A
C275   C276    1.430   .     A
C275   C288    1.424   .     A
C276   C285    1.424   .     A
C277   C278    1.390   .     A
C277   H91     1.075   .     S
C278   C279    1.397   .     A
C278   O91     1.397   .     S
C279   C280    1.388   .     A
C279   O92     1.396   .     S
C280   H92     1.074   .     S
C281   C282    1.390   .     A
C281   H93     1.075   .     S
C282   C283    1.397   .     A
C282   O93     1.397   .     S
C283   C284    1.388   .     A
C283   O94     1.396   .     S
C284   H94     1.074   .     S
C285   C286    1.389   .     A
C285   H95     1.075   .     S
C286   C287    1.397   .     A
C286   O95     1.397   .     S
C287   C288    1.389   .     A
C287   O96     1.397   .     S
C288   H96     1.075   .     S
O91    Zn17    1.800   .     S
O92    Zn17    1.797   .     S
O93    Zn12    1.800   .     S
O94    Zn12    1.797   .     S
O95    Zn32    1.799   .     S
O96    Zn32    1.799   .     S
C289   C290    1.430   .     A
C289   C294    1.428   .     A
C289   C299    1.425   .     A
C290   C291    1.428   .     A
C290   C302    1.423   .     A
C291   C292    1.430   .     A
C291   C298    1.423   .     A
C292   C293    1.428   .     A
C292   C295    1.424   .     A
C293   C294    1.430   .     A
C293   C306    1.423   .     A
C294   C303    1.424   .     A
C295   C296    1.390   .     A
C295   H97     1.075   .     S
C296   C297    1.397   .     A
C296   O97     1.397   .     S
C297   C298    1.388   .     A
C297   O98     1.396   .     S
C298   H98     1.074   .     S
C299   C300    1.390   .     A
C299   H99     1.075   .     S
C300   C301    1.397   .     A
C300   O99     1.397   .     S
C301   C302    1.388   .     A
C301   O100    1.396   .     S
C302   H100    1.074   .     S
C303   C304    1.389   .     A
C303   H101    1.075   .     S
C304   C305    1.397   .     A
C304   O101    1.396   .     S
C305   C306    1.389   .     A
C305   O102    1.396   .     S
C306   H102    1.075   .     S
O97    Zn21    1.801   .     S
O98    Zn21    1.796   .     S
O99    Zn13    1.801   .     S
O100   Zn13    1.796   .     S
O101   Zn33    1.798   .     S
O102   Zn33    1.798   .     S
C307   C308    1.429   .     A
C307   C312    1.427   .     A
C307   C317    1.424   .     A
C308   C309    1.428   .     A
C308   C320    1.423   .     A
C309   C310    1.430   .     A
C309   C316    1.423   .     A
C310   C311    1.428   .     A
C310   C313    1.424   .     A
C311   C312    1.430   .     A
C311   C324    1.424   .     A
C312   C321    1.424   .     A
C313   C314    1.390   .     A
C313   H103    1.075   .     S
C314   C315    1.397   .     A
C314   O103    1.397   .     S
C315   C316    1.388   .     A
C315   O104    1.396   .     S
C316   H104    1.074   .     S
C317   C318    1.390   .     A
C317   H105    1.075   .     S
C318   C319    1.397   .     A
C318   O105    1.397   .     S
C319   C320    1.388   .     A
C319   O106    1.396   .     S
C320   H106    1.074   .     S
C321   C322    1.389   .     A
C321   H107    1.075   .     S
C322   C323    1.397   .     A
C322   O107    1.396   .     S
C323   C324    1.389   .     A
C323   O108    1.396   .     S
C324   H108    1.075   .     S
O103   Zn14    1.800   .     S
O104   Zn14    1.796   .     S
O105   Zn18    1.800   .     S
O106   Zn18    1.796   .     S
O107   Zn34    1.798   .     S
O108   Zn34    1.799   .     S
C325   C326    1.430   .     A
C325   C330    1.428   .     A
C325   C335    1.423   .     A
C326   C327    1.428   .     A
C326   C338    1.425   .     A
C327   C328    1.430   .     A
C327   C334    1.424   .     A
C328   C329    1.428   .     A
C328   C331    1.424   .     A
C329   C330    1.430   .     A
C329   C342    1.425   .     A
C330   C339    1.423   .     A
C331   C332    1.389   .     A
C331   H109    1.075   .     S
C332   C333    1.397   .     A
C332   O109    1.396   .     S
C333   C334    1.389   .     A
C333   O110    1.396   .     S
C334   H110    1.075   .     S
C335   C336    1.388   .     A
C335   H111    1.074   .     S
C336   C337    1.397   .     A
C336   O111    1.396   .     S
C337   C338    1.390   .     A
C337   O112    1.397   .     S
C338   H112    1.075   .     S
C339   C340    1.388   .     A
C339   H113    1.074   .     S
C340   C341    1.396   .     A
C340   O113    1.396   .     S
C341   C342    1.390   .     A
C341   O114    1.397   .     S
C342   H114    1.075   .     S
O109   Zn35    1.798   .     S
O110   Zn35    1.798   .     S
O111   Zn15    1.796   .     S
O112   Zn15    1.801   .     S
O113   Zn19    1.796   .     S
O114   Zn19    1.800   .     S
C343   C344    1.430   .     A
C343   C348    1.428   .     A
C343   C353    1.424   .     A
C344   C345    1.428   .     A
C344   C356    1.424   .     A
C345   C346    1.430   .     A
C345   C352    1.424   .     A
C346   C347    1.428   .     A
C346   C349    1.424   .     A
C347   C348    1.430   .     A
C347   C360    1.424   .     A
C348   C357    1.423   .     A
C349   C350    1.389   .     A
C349   H115    1.075   .     S
C350   C351    1.397   .     A
C350   O115    1.396   .     S
C351   C352    1.389   .     A
C351   O116    1.396   .     S
C352   H116    1.075   .     S
C353   C354    1.388   .     A
C353   H117    1.074   .     S
C354   C355    1.397   .     A
C354   O117    1.396   .     S
C355   C356    1.389   .     A
C355   O118    1.397   .     S
C356   H118    1.075   .     S
C357   C358    1.388   .     A
C357   H119    1.074   .     S
C358   C359    1.397   .     A
C358   O119    1.396   .     S
C359   C360    1.389   .     A
C359   O120    1.397   .     S
C360   H120    1.075   .     S
O115   Zn36    1.799   .     S
O116   Zn36    1.798   .     S
O117   Zn20    1.797   .     S
O118   Zn20    1.800   .     S
O119   Zn16    1.796   .     S
O120   Zn16    1.800   .     S
C361   C362    1.411   .     A
C361   C366    1.394   .     A
C361   H121    1.084   .     S
C362   C363    1.432   .     A
C362   C397    1.403   .     A
C363   C364    1.412   .     A
C363   C400    1.403   .     A
C364   C365    1.394   .     A
C364   H122    1.084   .     S
C365   C366    1.358   .     A
C365   C368    1.377   .     A
C366   C367    1.377   .     A
C367   N1      1.359   .     A
C367   N8      1.338   1_565 A
N1     C368    1.359   .     A
N1     Ni1     1.895   1_565 S
C368   N2      1.338   .     A
N2     C369    1.338   1_455 A
C369   N2      1.338   1_655 A
C369   N3      1.359   .     A
C369   C372    1.376   .     A
N3     C370    1.359   .     A
N3     Ni1     1.895   1_665 S
C370   C371    1.377   .     A
C370   N5      1.338   1_565 A
C371   C372    1.358   .     A
C371   C380    1.394   .     A
C372   C377    1.394   .     A
N4     C373    1.359   .     A
N4     C376    1.359   .     A
N4     Ni1     1.895   1_655 S
C373   N5      1.338   .     A
C373   C374    1.377   .     A
N5     C370    1.338   1_545 A
C374   C375    1.358   .     A
C374   C384    1.394   .     A
C375   C376    1.377   .     A
C375   C381    1.394   .     A
C376   N7      1.338   1_655 A
C377   C378    1.411   .     A
C377   H123    1.084   .     S
C378   C379    1.432   .     A
C378   C401    1.403   .     A
C379   C380    1.411   .     A
C379   C404    1.403   .     A
C380   H124    1.084   .     S
C381   C382    1.411   .     A
C381   H125    1.084   .     S
C382   C383    1.432   .     A
C382   C405    1.403   .     A
C383   C384    1.411   .     A
C383   C408    1.403   .     A
C384   H126    1.084   .     S
N6     C385    1.359   .     A
N6     C388    1.359   .     A
N6     Ni1     1.895   .     S
C385   N7      1.338   .     A
C385   C386    1.376   .     A
N7     C376    1.338   1_455 A
C386   C387    1.358   .     A
C386   C392    1.394   .     A
C387   C388    1.377   .     A
C387   C389    1.394   .     A
C388   N8      1.338   .     A
C389   C390    1.411   .     A
C389   H127    1.084   .     S
C390   C391    1.432   .     A
C390   C393    1.403   .     A
C391   C392    1.411   .     A
C391   C396    1.403   .     A
C392   H128    1.084   .     S
N8     C367    1.338   1_545 A
C393   C394    1.397   .     A
C393   H129    1.084   .     S
C394   C395    1.412   .     A
C394   O121    1.395   .     S
C395   C396    1.397   .     A
C395   O122    1.396   .     S
C396   H130    1.084   .     S
C397   C398    1.397   .     A
C397   H131    1.084   .     S
C398   C399    1.412   .     A
C398   O123    1.395   .     S
C399   C400    1.397   .     A
C399   O124    1.396   .     S
C400   H132    1.084   .     S
C401   C402    1.397   .     A
C401   H133    1.084   .     S
C402   C403    1.412   .     A
C402   O125    1.395   .     S
C403   C404    1.397   .     A
C403   O126    1.395   .     S
C404   H134    1.084   .     S
C405   C406    1.397   .     A
C405   H135    1.084   .     S
C406   C407    1.412   .     A
C406   O127    1.396   .     S
C407   C408    1.397   .     A
C407   O128    1.395   .     S
C408   H136    1.084   .     S
O121   Zn25    1.800   .     S
O122   Zn25    1.801   .     S
O123   Zn28    1.800   .     S
O124   Zn28    1.801   .     S
O125   Zn27    1.800   .     S
O126   Zn27    1.799   .     S
O127   Zn26    1.800   .     S
O128   Zn26    1.799   .     S
Ni1    N4      1.895   1_455 S
Ni1    N1      1.895   1_545 S
Ni1    N3      1.895   1_445 S
C409   C410    1.411   .     A
C409   C414    1.394   .     A
C409   H137    1.084   .     S
C410   C411    1.432   .     A
C410   C445    1.403   .     A
C411   C412    1.412   .     A
C411   C448    1.403   .     A
C412   C413    1.394   .     A
C412   H138    1.084   .     S
C413   C414    1.358   .     A
C413   C416    1.377   .     A
C414   C415    1.377   .     A
C415   N9      1.359   .     A
C415   N16     1.338   .     A
N9     C416    1.359   .     A
N9     Ni2     1.895   .     S
C416   N10     1.338   .     A
N10    C417    1.338   1_554 A
C417   N10     1.338   1_556 A
C417   N11     1.359   .     A
C417   C420    1.377   .     A
N11    C418    1.359   .     A
N11    Ni2     1.895   1_556 S
C418   C419    1.377   .     A
C418   N13     1.338   .     A
C419   C420    1.358   .     A
C419   C428    1.394   .     A
C420   C425    1.394   .     A
N12    C421    1.359   .     A
N12    C424    1.360   .     A
N12    Ni2     1.895   1_566 S
C421   N13     1.338   1_565 A
C421   C422    1.377   .     A
N13    C421    1.338   1_545 A
C422   C423    1.358   .     A
C422   C432    1.394   .     A
C423   C424    1.377   .     A
C423   C429    1.394   .     A
C424   N15     1.338   1_556 A
C425   C426    1.411   .     A
C425   H139    1.084   .     S
C426   C427    1.432   .     A
C426   C449    1.403   .     A
C427   C428    1.411   .     A
C427   C452    1.402   .     A
C428   H140    1.084   .     S
C429   C430    1.412   .     A
C429   H141    1.084   .     S
C430   C431    1.432   .     A
C430   C453    1.403   .     A
C431   C432    1.411   .     A
C431   C456    1.402   .     A
C432   H142    1.084   .     S
N14    C433    1.359   .     A
N14    C436    1.359   .     A
N14    Ni2     1.895   1_565 S
C433   N15     1.338   .     A
C433   C434    1.377   .     A
N15    C424    1.338   1_554 A
C434   C435    1.358   .     A
C434   C440    1.394   .     A
C435   C436    1.377   .     A
C435   C437    1.394   .     A
C436   N16     1.338   1_565 A
C437   C438    1.411   .     A
C437   H143    1.084   .     S
C438   C439    1.432   .     A
C438   C441    1.403   .     A
C439   C440    1.412   .     A
C439   C444    1.403   .     A
C440   H144    1.084   .     S
N16    C436    1.338   1_545 A
C441   C442    1.397   .     A
C441   H145    1.084   .     S
C442   C443    1.412   .     A
C442   O129    1.395   .     S
C443   C444    1.397   .     A
C443   O130    1.396   .     S
C444   H146    1.084   .     S
C445   C446    1.397   .     A
C445   H147    1.084   .     S
C446   C447    1.412   .     A
C446   O131    1.395   .     S
C447   C448    1.397   .     A
C447   O132    1.396   .     S
C448   H148    1.084   .     S
C449   C450    1.397   .     A
C449   H149    1.084   .     S
C450   C451    1.412   .     A
C450   O133    1.396   .     S
C451   C452    1.397   .     A
C451   O134    1.395   .     S
C452   H150    1.084   .     S
C453   C454    1.397   .     A
C453   H151    1.084   .     S
C454   C455    1.412   .     A
C454   O135    1.396   .     S
C455   C456    1.397   .     A
C455   O136    1.395   .     S
C456   H152    1.084   .     S
O129   Zn31    1.800   .     S
O130   Zn31    1.801   .     S
O131   Zn29    1.800   .     S
O132   Zn29    1.801   .     S
O133   Zn35    1.801   .     S
O134   Zn35    1.799   .     S
O135   Zn33    1.801   .     S
O136   Zn33    1.799   .     S
Ni2    N14     1.895   1_545 S
Ni2    N11     1.895   1_554 S
Ni2    N12     1.895   1_544 S
C457   C458    1.412   .     A
C457   C462    1.394   .     A
C457   H153    1.084   .     S
C458   C459    1.432   .     A
C458   C493    1.403   .     A
C459   C460    1.412   .     A
C459   C496    1.403   .     A
C460   C461    1.395   .     A
C460   H154    1.084   .     S
C461   C462    1.358   .     A
C461   C464    1.377   .     A
C462   C463    1.377   .     A
C463   N17     1.359   .     A
C463   N24     1.338   .     A
N17    C464    1.360   .     A
N17    Ni3     1.895   1_655 S
C464   N18     1.338   1_655 A
N18    C464    1.338   1_455 A
N18    C465    1.338   .     A
C465   N19     1.359   .     A
C465   C468    1.377   .     A
N19    C466    1.359   .     A
N19    Ni3     1.895   .     S
C466   C467    1.377   .     A
C466   N21     1.338   .     A
C467   C468    1.358   .     A
C467   C476    1.394   .     A
C468   C473    1.394   .     A
N20    C469    1.359   .     A
N20    C472    1.360   .     A
N20    Ni3     1.895   1_556 S
C469   N21     1.338   1_556 A
C469   C470    1.377   .     A
N21    C469    1.338   1_554 A
C470   C471    1.358   .     A
C470   C480    1.394   .     A
C471   C472    1.377   .     A
C471   C477    1.394   .     A
C472   N23     1.338   .     A
C473   C474    1.412   .     A
C473   H155    1.084   .     S
C474   C475    1.432   .     A
C474   C497    1.403   .     A
C475   C476    1.412   .     A
C475   C500    1.403   .     A
C476   H156    1.084   .     S
C477   C478    1.412   .     A
C477   H157    1.084   .     S
C478   C479    1.432   .     A
C478   C501    1.403   .     A
C479   C480    1.411   .     A
C479   C504    1.403   .     A
C480   H158    1.084   .     S
N22    C481    1.359   .     A
N22    C484    1.359   .     A
N22    Ni3     1.895   1_656 S
C481   N23     1.338   1_655 A
C481   C482    1.377   .     A
N23    C481    1.338   1_455 A
C482   C483    1.358   .     A
C482   C488    1.394   .     A
C483   C484    1.377   .     A
C483   C485    1.394   .     A
C484   N24     1.338   1_556 A
C485   C486    1.411   .     A
C485   H159    1.084   .     S
C486   C487    1.432   .     A
C486   C489    1.403   .     A
C487   C488    1.412   .     A
C487   C492    1.403   .     A
C488   H160    1.084   .     S
N24    C484    1.338   1_554 A
C489   C490    1.397   .     A
C489   H161    1.084   .     S
C490   C491    1.412   .     A
C490   O137    1.395   .     S
C491   C492    1.397   .     A
C491   O138    1.396   .     S
C492   H162    1.084   .     S
C493   C494    1.397   .     A
C493   H163    1.084   .     S
C494   C495    1.412   .     A
C494   O139    1.395   .     S
C495   C496    1.397   .     A
C495   O140    1.396   .     S
C496   H164    1.084   .     S
C497   C498    1.397   .     A
C497   H165    1.084   .     S
C498   C499    1.412   .     A
C498   O141    1.396   .     S
C499   C500    1.397   .     A
C499   O142    1.395   .     S
C500   H166    1.084   .     S
C501   C502    1.397   .     A
C501   H167    1.084   .     S
C502   C503    1.412   .     A
C502   O143    1.396   .     S
C503   C504    1.397   .     A
C503   O144    1.395   .     S
C504   H168    1.084   .     S
O137   Zn36    1.800   .     S
O138   Zn36    1.801   .     S
O139   Zn30    1.800   .     S
O140   Zn30    1.801   .     S
O141   Zn32    1.801   .     S
O142   Zn32    1.800   .     S
O143   Zn34    1.801   .     S
O144   Zn34    1.800   .     S
Ni3    N17     1.895   1_455 S
Ni3    N20     1.895   1_554 S
Ni3    N22     1.895   1_454 S
