data_tfe-B_O-PcM_O-Zntet
_audit_creation_date              2021-11-06
_audit_creation_method            'Materials Studio'
_symmetry_space_group_name_H-M    'P1'
_symmetry_Int_Tables_number       1
_symmetry_cell_setting            triclinic
loop_
_symmetry_equiv_pos_as_xyz
  x,y,z
_cell_length_a                    34.9766
_cell_length_b                    34.9766
_cell_length_c                    34.9765
_cell_angle_alpha                 89.9999
_cell_angle_beta                  90.0001
_cell_angle_gamma                 90.0007
loop_
_atom_site_label
_atom_site_type_symbol
_atom_site_fract_x
_atom_site_fract_y
_atom_site_fract_z
_atom_site_U_iso_or_equiv
_atom_site_adp_type
_atom_site_occupancy
C1     C     0.32973   0.30182   0.35894   0.00000  Uiso   1.00
C2     C     0.35801   0.30182   0.33066   0.00000  Uiso   1.00
C3     C     0.35801   0.33040   0.30208   0.00000  Uiso   1.00
C4     C     0.32973   0.35868   0.30207   0.00000  Uiso   1.00
C5     C     0.30114   0.35868   0.33065   0.00000  Uiso   1.00
C6     C     0.30114   0.33040   0.35893   0.00000  Uiso   1.00
O1     O     0.33009   0.27448   0.38801   0.00000  Uiso   1.00
O2     O     0.38709   0.27448   0.33103   0.00000  Uiso   1.00
O3     O     0.38709   0.33076   0.27474   0.00000  Uiso   1.00
O4     O     0.33009   0.38774   0.27473   0.00000  Uiso   1.00
O5     O     0.27380   0.38774   0.33100   0.00000  Uiso   1.00
O6     O     0.27380   0.33076   0.38800   0.00000  Uiso   1.00
C7     C     0.67716   0.35870   0.30207   0.00000  Uiso   1.00
C8     C     0.64888   0.33041   0.30207   0.00000  Uiso   1.00
C9     C     0.64888   0.30183   0.33065   0.00000  Uiso   1.00
C10    C     0.67716   0.30183   0.35893   0.00000  Uiso   1.00
C11    C     0.70574   0.33042   0.35893   0.00000  Uiso   1.00
C12    C     0.70574   0.35870   0.33065   0.00000  Uiso   1.00
O7     O     0.67680   0.38777   0.27473   0.00000  Uiso   1.00
O8     O     0.61981   0.33078   0.27473   0.00000  Uiso   1.00
O9     O     0.61982   0.27449   0.33101   0.00000  Uiso   1.00
O10    O     0.67680   0.27449   0.38800   0.00000  Uiso   1.00
O11    O     0.73308   0.33078   0.38800   0.00000  Uiso   1.00
O12    O     0.73308   0.38777   0.33102   0.00000  Uiso   1.00
C13    C     0.67714   0.70644   0.35894   0.00000  Uiso   1.00
C14    C     0.64886   0.70643   0.33065   0.00000  Uiso   1.00
C15    C     0.64886   0.67785   0.30207   0.00000  Uiso   1.00
C16    C     0.67715   0.64957   0.30208   0.00000  Uiso   1.00
C17    C     0.70573   0.64957   0.33066   0.00000  Uiso   1.00
C18    C     0.70573   0.67785   0.35894   0.00000  Uiso   1.00
O13    O     0.67678   0.73378   0.38800   0.00000  Uiso   1.00
O14    O     0.61980   0.73377   0.33101   0.00000  Uiso   1.00
O15    O     0.61980   0.67749   0.27473   0.00000  Uiso   1.00
O16    O     0.67678   0.62050   0.27474   0.00000  Uiso   1.00
O17    O     0.73307   0.62050   0.33103   0.00000  Uiso   1.00
O18    O     0.73307   0.67749   0.38801   0.00000  Uiso   1.00
C19    C     0.32973   0.64953   0.30207   0.00000  Uiso   1.00
C20    C     0.35801   0.67782   0.30207   0.00000  Uiso   1.00
C21    C     0.35801   0.70641   0.33064   0.00000  Uiso   1.00
C22    C     0.32972   0.70641   0.35892   0.00000  Uiso   1.00
C23    C     0.30114   0.67783   0.35893   0.00000  Uiso   1.00
C24    C     0.30115   0.64954   0.33065   0.00000  Uiso   1.00
O19    O     0.33010   0.62046   0.27474   0.00000  Uiso   1.00
O20    O     0.38708   0.67746   0.27473   0.00000  Uiso   1.00
O21    O     0.38707   0.73375   0.33100   0.00000  Uiso   1.00
O22    O     0.33008   0.73376   0.38798   0.00000  Uiso   1.00
O23    O     0.27380   0.67747   0.38799   0.00000  Uiso   1.00
O24    O     0.27381   0.62047   0.33102   0.00000  Uiso   1.00
C25    C     0.32972   0.64958   0.70665   0.00000  Uiso   1.00
C26    C     0.35801   0.67786   0.70665   0.00000  Uiso   1.00
C27    C     0.35801   0.70644   0.67806   0.00000  Uiso   1.00
C28    C     0.32973   0.70644   0.64978   0.00000  Uiso   1.00
C29    C     0.30114   0.67786   0.64978   0.00000  Uiso   1.00
C30    C     0.30114   0.64958   0.67806   0.00000  Uiso   1.00
O25    O     0.33008   0.62051   0.73399   0.00000  Uiso   1.00
O26    O     0.38707   0.67750   0.73399   0.00000  Uiso   1.00
O27    O     0.38708   0.73377   0.67770   0.00000  Uiso   1.00
O28    O     0.33010   0.73377   0.62071   0.00000  Uiso   1.00
O29    O     0.27381   0.67749   0.62071   0.00000  Uiso   1.00
O30    O     0.27380   0.62051   0.67771   0.00000  Uiso   1.00
C31    C     0.35800   0.33045   0.70666   0.00000  Uiso   1.00
C32    C     0.32972   0.35873   0.70666   0.00000  Uiso   1.00
C33    C     0.30113   0.35873   0.67808   0.00000  Uiso   1.00
C34    C     0.30113   0.33045   0.64979   0.00000  Uiso   1.00
C35    C     0.32972   0.30186   0.64979   0.00000  Uiso   1.00
C36    C     0.35800   0.30186   0.67807   0.00000  Uiso   1.00
O31    O     0.38707   0.33081   0.73400   0.00000  Uiso   1.00
O32    O     0.33008   0.38780   0.73400   0.00000  Uiso   1.00
O33    O     0.27379   0.38779   0.67772   0.00000  Uiso   1.00
O34    O     0.27379   0.33081   0.62073   0.00000  Uiso   1.00
O35    O     0.33008   0.27452   0.62073   0.00000  Uiso   1.00
O36    O     0.38707   0.27452   0.67771   0.00000  Uiso   1.00
C37    C     0.67715   0.35867   0.70667   0.00000  Uiso   1.00
C38    C     0.64886   0.33039   0.70667   0.00000  Uiso   1.00
C39    C     0.64886   0.30182   0.67808   0.00000  Uiso   1.00
C40    C     0.67714   0.30182   0.64980   0.00000  Uiso   1.00
C41    C     0.70572   0.33040   0.64980   0.00000  Uiso   1.00
C42    C     0.70573   0.35867   0.67809   0.00000  Uiso   1.00
O37    O     0.67679   0.38774   0.73402   0.00000  Uiso   1.00
O38    O     0.61980   0.33076   0.73401   0.00000  Uiso   1.00
O39    O     0.61978   0.27448   0.67772   0.00000  Uiso   1.00
O40    O     0.67677   0.27448   0.62072   0.00000  Uiso   1.00
O41    O     0.73306   0.33076   0.62073   0.00000  Uiso   1.00
O42    O     0.73307   0.38774   0.67773   0.00000  Uiso   1.00
C43    C     0.67714   0.70640   0.64980   0.00000  Uiso   1.00
C44    C     0.64886   0.70640   0.67808   0.00000  Uiso   1.00
C45    C     0.64886   0.67782   0.70666   0.00000  Uiso   1.00
C46    C     0.67714   0.64953   0.70666   0.00000  Uiso   1.00
C47    C     0.70572   0.64953   0.67807   0.00000  Uiso   1.00
C48    C     0.70572   0.67781   0.64979   0.00000  Uiso   1.00
O43    O     0.67678   0.73374   0.62073   0.00000  Uiso   1.00
O44    O     0.61980   0.73375   0.67772   0.00000  Uiso   1.00
O45    O     0.61979   0.67746   0.73400   0.00000  Uiso   1.00
O46    O     0.67677   0.62046   0.73400   0.00000  Uiso   1.00
O47    O     0.73305   0.62046   0.67771   0.00000  Uiso   1.00
O48    O     0.73306   0.67745   0.62072   0.00000  Uiso   1.00
C49    C     0.27844   0.27914   0.48439   0.00000  Uiso   1.00
C50    C     0.27844   0.27915   0.52435   0.00000  Uiso   1.00
C51    C     0.25371   0.25443   0.54461   0.00000  Uiso   1.00
C52    C     0.22922   0.22993   0.52460   0.00000  Uiso   1.00
C53    C     0.22922   0.22992   0.48416   0.00000  Uiso   1.00
C54    C     0.25372   0.25441   0.46414   0.00000  Uiso   1.00
O49    O     0.30275   0.30345   0.46416   0.00000  Uiso   1.00
O50    O     0.30274   0.30347   0.54457   0.00000  Uiso   1.00
O51    O     0.25407   0.25479   0.58454   0.00000  Uiso   1.00
O52    O     0.20464   0.20534   0.54419   0.00000  Uiso   1.00
O53    O     0.20463   0.20533   0.46458   0.00000  Uiso   1.00
O54    O     0.25407   0.25476   0.42421   0.00000  Uiso   1.00
C55    C     0.72842   0.27913   0.52435   0.00000  Uiso   1.00
C56    C     0.72843   0.27914   0.48438   0.00000  Uiso   1.00
C57    C     0.75315   0.25441   0.46413   0.00000  Uiso   1.00
C58    C     0.77765   0.22991   0.48415   0.00000  Uiso   1.00
C59    C     0.77764   0.22991   0.52459   0.00000  Uiso   1.00
C60    C     0.75314   0.25441   0.54460   0.00000  Uiso   1.00
O55    O     0.70411   0.30344   0.54457   0.00000  Uiso   1.00
O56    O     0.70412   0.30344   0.46415   0.00000  Uiso   1.00
O57    O     0.75281   0.25477   0.42420   0.00000  Uiso   1.00
O58    O     0.80224   0.20533   0.46457   0.00000  Uiso   1.00
O59    O     0.80222   0.20532   0.54418   0.00000  Uiso   1.00
O60    O     0.75278   0.25476   0.58453   0.00000  Uiso   1.00
C61    C     0.72841   0.72912   0.48439   0.00000  Uiso   1.00
C62    C     0.72841   0.72911   0.52436   0.00000  Uiso   1.00
C63    C     0.75314   0.75383   0.54461   0.00000  Uiso   1.00
C64    C     0.77764   0.77833   0.52461   0.00000  Uiso   1.00
C65    C     0.77764   0.77834   0.48416   0.00000  Uiso   1.00
C66    C     0.75314   0.75385   0.46414   0.00000  Uiso   1.00
O61    O     0.70411   0.70482   0.46416   0.00000  Uiso   1.00
O62    O     0.70411   0.70480   0.54458   0.00000  Uiso   1.00
O63    O     0.75279   0.75347   0.58454   0.00000  Uiso   1.00
O64    O     0.80223   0.80291   0.54420   0.00000  Uiso   1.00
O65    O     0.80223   0.80293   0.46458   0.00000  Uiso   1.00
O66    O     0.75279   0.75350   0.42421   0.00000  Uiso   1.00
C67    C     0.27845   0.72912   0.48436   0.00000  Uiso   1.00
C68    C     0.27845   0.72912   0.52433   0.00000  Uiso   1.00
C69    C     0.25373   0.75385   0.54458   0.00000  Uiso   1.00
C70    C     0.22923   0.77835   0.52457   0.00000  Uiso   1.00
C71    C     0.22922   0.77834   0.48412   0.00000  Uiso   1.00
C72    C     0.25372   0.75384   0.46411   0.00000  Uiso   1.00
O67    O     0.30275   0.70481   0.46414   0.00000  Uiso   1.00
O68    O     0.30276   0.70482   0.54456   0.00000  Uiso   1.00
O69    O     0.25409   0.75350   0.58451   0.00000  Uiso   1.00
O70    O     0.20465   0.80293   0.54415   0.00000  Uiso   1.00
O71    O     0.20463   0.80292   0.46454   0.00000  Uiso   1.00
O72    O     0.25407   0.75348   0.42418   0.00000  Uiso   1.00
C73    C     0.48347   0.27913   0.27939   0.00000  Uiso   1.00
C74    C     0.52343   0.27913   0.27938   0.00000  Uiso   1.00
C75    C     0.54368   0.25441   0.25465   0.00000  Uiso   1.00
C76    C     0.52367   0.22991   0.23016   0.00000  Uiso   1.00
C77    C     0.48322   0.22991   0.23016   0.00000  Uiso   1.00
C78    C     0.46321   0.25440   0.25466   0.00000  Uiso   1.00
O73    O     0.46324   0.30343   0.30369   0.00000  Uiso   1.00
O74    O     0.54366   0.30344   0.30368   0.00000  Uiso   1.00
O75    O     0.58361   0.25476   0.25500   0.00000  Uiso   1.00
O76    O     0.54325   0.20532   0.20557   0.00000  Uiso   1.00
O77    O     0.46363   0.20532   0.20558   0.00000  Uiso   1.00
O78    O     0.42328   0.25475   0.25502   0.00000  Uiso   1.00
C79    C     0.75316   0.46391   0.25466   0.00000  Uiso   1.00
C80    C     0.77766   0.48392   0.23016   0.00000  Uiso   1.00
C81    C     0.77765   0.52437   0.23017   0.00000  Uiso   1.00
C82    C     0.75315   0.54438   0.25467   0.00000  Uiso   1.00
C83    C     0.72843   0.52412   0.27939   0.00000  Uiso   1.00
C84    C     0.72843   0.48415   0.27939   0.00000  Uiso   1.00
O79    O     0.75281   0.42398   0.25501   0.00000  Uiso   1.00
O80    O     0.80224   0.46434   0.20558   0.00000  Uiso   1.00
O81    O     0.80224   0.54396   0.20558   0.00000  Uiso   1.00
O82    O     0.75280   0.58431   0.25502   0.00000  Uiso   1.00
O83    O     0.70412   0.54434   0.30370   0.00000  Uiso   1.00
O84    O     0.70413   0.46392   0.30369   0.00000  Uiso   1.00
C85    C     0.48345   0.72911   0.27937   0.00000  Uiso   1.00
C86    C     0.52342   0.72911   0.27937   0.00000  Uiso   1.00
C87    C     0.54367   0.75384   0.25464   0.00000  Uiso   1.00
C88    C     0.52365   0.77833   0.23014   0.00000  Uiso   1.00
C89    C     0.48321   0.77832   0.23014   0.00000  Uiso   1.00
C90    C     0.46320   0.75383   0.25464   0.00000  Uiso   1.00
O85    O     0.46323   0.70480   0.30368   0.00000  Uiso   1.00
O86    O     0.54364   0.70481   0.30368   0.00000  Uiso   1.00
O87    O     0.58360   0.75349   0.25500   0.00000  Uiso   1.00
O88    O     0.54323   0.80292   0.20556   0.00000  Uiso   1.00
O89    O     0.46362   0.80290   0.20555   0.00000  Uiso   1.00
O90    O     0.42327   0.75347   0.25499   0.00000  Uiso   1.00
C91    C     0.22923   0.52433   0.23015   0.00000  Uiso   1.00
C92    C     0.25373   0.54434   0.25465   0.00000  Uiso   1.00
C93    C     0.27845   0.52409   0.27938   0.00000  Uiso   1.00
C94    C     0.27845   0.48412   0.27937   0.00000  Uiso   1.00
C95    C     0.25373   0.46387   0.25465   0.00000  Uiso   1.00
C96    C     0.22923   0.48389   0.23015   0.00000  Uiso   1.00
O91    O     0.20465   0.54392   0.20557   0.00000  Uiso   1.00
O92    O     0.25409   0.58427   0.25501   0.00000  Uiso   1.00
O93    O     0.30276   0.54431   0.30369   0.00000  Uiso   1.00
O94    O     0.30276   0.46389   0.30368   0.00000  Uiso   1.00
O95    O     0.25408   0.42394   0.25500   0.00000  Uiso   1.00
O96    O     0.20464   0.46431   0.20556   0.00000  Uiso   1.00
C97    C     0.48345   0.72912   0.72935   0.00000  Uiso   1.00
C98    C     0.52342   0.72911   0.72935   0.00000  Uiso   1.00
C99    C     0.54367   0.75383   0.75408   0.00000  Uiso   1.00
C100   C     0.52366   0.77834   0.77857   0.00000  Uiso   1.00
C101   C     0.48322   0.77834   0.77857   0.00000  Uiso   1.00
C102   C     0.46320   0.75385   0.75407   0.00000  Uiso   1.00
O97    O     0.46323   0.70481   0.70504   0.00000  Uiso   1.00
O98    O     0.54364   0.70480   0.70505   0.00000  Uiso   1.00
O99    O     0.58360   0.75347   0.75373   0.00000  Uiso   1.00
O100   O     0.54324   0.80292   0.80316   0.00000  Uiso   1.00
O101   O     0.46363   0.80293   0.80315   0.00000  Uiso   1.00
O102   O     0.42327   0.75350   0.75371   0.00000  Uiso   1.00
C103   C     0.22922   0.52438   0.77858   0.00000  Uiso   1.00
C104   C     0.25372   0.54439   0.75407   0.00000  Uiso   1.00
C105   C     0.27844   0.52414   0.72935   0.00000  Uiso   1.00
C106   C     0.27844   0.48417   0.72935   0.00000  Uiso   1.00
C107   C     0.25372   0.46392   0.75408   0.00000  Uiso   1.00
C108   C     0.22922   0.48393   0.77858   0.00000  Uiso   1.00
O103   O     0.20464   0.54397   0.80316   0.00000  Uiso   1.00
O104   O     0.25407   0.58432   0.75372   0.00000  Uiso   1.00
O105   O     0.30275   0.54436   0.70504   0.00000  Uiso   1.00
O106   O     0.30275   0.46395   0.70505   0.00000  Uiso   1.00
O107   O     0.25407   0.42399   0.75373   0.00000  Uiso   1.00
O108   O     0.20463   0.46435   0.80316   0.00000  Uiso   1.00
C109   C     0.48344   0.27915   0.72935   0.00000  Uiso   1.00
C110   C     0.52341   0.27914   0.72935   0.00000  Uiso   1.00
C111   C     0.54365   0.25441   0.75408   0.00000  Uiso   1.00
C112   C     0.52363   0.22991   0.77857   0.00000  Uiso   1.00
C113   C     0.48319   0.22993   0.77857   0.00000  Uiso   1.00
C114   C     0.46318   0.25443   0.75408   0.00000  Uiso   1.00
O109   O     0.46322   0.30346   0.70505   0.00000  Uiso   1.00
O110   O     0.54364   0.30345   0.70505   0.00000  Uiso   1.00
O111   O     0.58358   0.25475   0.75372   0.00000  Uiso   1.00
O112   O     0.54321   0.20532   0.80316   0.00000  Uiso   1.00
O113   O     0.46360   0.20534   0.80316   0.00000  Uiso   1.00
O114   O     0.42325   0.25479   0.75372   0.00000  Uiso   1.00
C115   C     0.75315   0.46387   0.75409   0.00000  Uiso   1.00
C116   C     0.77765   0.48389   0.77858   0.00000  Uiso   1.00
C117   C     0.77764   0.52434   0.77858   0.00000  Uiso   1.00
C118   C     0.75314   0.54434   0.75408   0.00000  Uiso   1.00
C119   C     0.72842   0.52409   0.72936   0.00000  Uiso   1.00
C120   C     0.72842   0.48412   0.72936   0.00000  Uiso   1.00
O115   O     0.75280   0.42394   0.75374   0.00000  Uiso   1.00
O116   O     0.80224   0.46432   0.80317   0.00000  Uiso   1.00
O117   O     0.80222   0.54393   0.80316   0.00000  Uiso   1.00
O118   O     0.75278   0.58427   0.75372   0.00000  Uiso   1.00
O119   O     0.70411   0.54431   0.70505   0.00000  Uiso   1.00
O120   O     0.70412   0.46389   0.70506   0.00000  Uiso   1.00
C121   C     0.86876   0.92696   0.50441   0.00000  Uiso   1.00
C122   C     0.85854   0.88807   0.50441   0.00000  Uiso   1.00
C123   C     0.88738   0.85923   0.50441   0.00000  Uiso   1.00
C124   C     0.92627   0.86945   0.50441   0.00000  Uiso   1.00
C125   C     0.93517   0.90835   0.50442   0.00000  Uiso   1.00
C126   C     0.90766   0.93585   0.50441   0.00000  Uiso   1.00
C127   C     0.92652   0.97040   0.50441   0.00000  Uiso   1.00
N1     N     0.96512   0.96581   0.50442   0.00000  Uiso   1.00
C128   C     0.96971   0.92721   0.50442   0.00000  Uiso   1.00
N2     N     0.00343   0.90914   0.50441   0.00000  Uiso   1.00
C129   C     0.03716   0.92721   0.50441   0.00000  Uiso   1.00
N3     N     0.04175   0.96581   0.50441   0.00000  Uiso   1.00
C130   C     0.08035   0.97040   0.50440   0.00000  Uiso   1.00
C131   C     0.09921   0.93586   0.50439   0.00000  Uiso   1.00
C132   C     0.07170   0.90835   0.50440   0.00000  Uiso   1.00
N4     N     0.04175   0.04244   0.50441   0.00000  Uiso   1.00
C133   C     0.08035   0.03785   0.50441   0.00000  Uiso   1.00
N5     N     0.09842   0.00413   0.50440   0.00000  Uiso   1.00
C134   C     0.09921   0.07240   0.50441   0.00000  Uiso   1.00
C135   C     0.07170   0.09990   0.50441   0.00000  Uiso   1.00
C136   C     0.03716   0.08104   0.50442   0.00000  Uiso   1.00
C137   C     0.08060   0.86945   0.50439   0.00000  Uiso   1.00
C138   C     0.11949   0.85923   0.50437   0.00000  Uiso   1.00
C139   C     0.14833   0.88807   0.50437   0.00000  Uiso   1.00
C140   C     0.13811   0.92697   0.50438   0.00000  Uiso   1.00
C141   C     0.08059   0.13881   0.50441   0.00000  Uiso   1.00
C142   C     0.11949   0.14902   0.50440   0.00000  Uiso   1.00
C143   C     0.14833   0.12018   0.50440   0.00000  Uiso   1.00
C144   C     0.13811   0.08129   0.50440   0.00000  Uiso   1.00
N6     N     0.96512   0.04244   0.50442   0.00000  Uiso   1.00
C145   C     0.96971   0.08104   0.50442   0.00000  Uiso   1.00
N7     N     0.00343   0.09911   0.50442   0.00000  Uiso   1.00
C146   C     0.93516   0.09990   0.50442   0.00000  Uiso   1.00
C147   C     0.90766   0.07239   0.50441   0.00000  Uiso   1.00
C148   C     0.92652   0.03785   0.50441   0.00000  Uiso   1.00
C149   C     0.86875   0.08128   0.50440   0.00000  Uiso   1.00
C150   C     0.85854   0.12018   0.50439   0.00000  Uiso   1.00
C151   C     0.88738   0.14902   0.50440   0.00000  Uiso   1.00
C152   C     0.92627   0.13880   0.50441   0.00000  Uiso   1.00
N8     N     0.90845   0.00412   0.50441   0.00000  Uiso   1.00
H1     H     0.84720   0.94917   0.50441   0.00000  Uiso   1.00
O121   O     0.82015   0.87729   0.50440   0.00000  Uiso   1.00
O122   O     0.87660   0.82083   0.50440   0.00000  Uiso   1.00
H2     H     0.94848   0.84788   0.50441   0.00000  Uiso   1.00
H3     H     0.05839   0.84789   0.50440   0.00000  Uiso   1.00
O123   O     0.13027   0.82084   0.50437   0.00000  Uiso   1.00
O124   O     0.18672   0.87730   0.50435   0.00000  Uiso   1.00
H4     H     0.15967   0.94917   0.50437   0.00000  Uiso   1.00
H5     H     0.05839   0.16037   0.50441   0.00000  Uiso   1.00
O125   O     0.13026   0.18742   0.50439   0.00000  Uiso   1.00
O126   O     0.18672   0.13097   0.50439   0.00000  Uiso   1.00
H6     H     0.15967   0.05909   0.50439   0.00000  Uiso   1.00
H7     H     0.84719   0.05908   0.50439   0.00000  Uiso   1.00
O127   O     0.82014   0.13096   0.50438   0.00000  Uiso   1.00
O128   O     0.87660   0.18741   0.50439   0.00000  Uiso   1.00
H8     H     0.94848   0.16036   0.50442   0.00000  Uiso   1.00
Ni1    Ni    0.00343   0.00413   0.50441   0.00000  Uiso   1.00
C153   C     0.50339   0.13881   0.92720   0.00000  Uiso   1.00
C154   C     0.50339   0.14902   0.88831   0.00000  Uiso   1.00
C155   C     0.50338   0.12018   0.85947   0.00000  Uiso   1.00
C156   C     0.50338   0.08129   0.86968   0.00000  Uiso   1.00
C157   C     0.50338   0.07240   0.90859   0.00000  Uiso   1.00
C158   C     0.50339   0.09990   0.93609   0.00000  Uiso   1.00
C159   C     0.50339   0.08104   0.97064   0.00000  Uiso   1.00
N9     N     0.50338   0.04245   0.96604   0.00000  Uiso   1.00
C160   C     0.50338   0.03785   0.92744   0.00000  Uiso   1.00
N10    N     0.50339   0.00413   0.90938   0.00000  Uiso   1.00
C161   C     0.50339   0.97041   0.92744   0.00000  Uiso   1.00
N11    N     0.50339   0.96581   0.96604   0.00000  Uiso   1.00
C162   C     0.50340   0.92721   0.97063   0.00000  Uiso   1.00
C163   C     0.50341   0.90836   0.93609   0.00000  Uiso   1.00
C164   C     0.50340   0.93586   0.90858   0.00000  Uiso   1.00
N12    N     0.50339   0.96581   0.04268   0.00000  Uiso   1.00
C165   C     0.50340   0.92721   0.03808   0.00000  Uiso   1.00
N13    N     0.50340   0.90914   0.00436   0.00000  Uiso   1.00
C166   C     0.50341   0.90835   0.07262   0.00000  Uiso   1.00
C167   C     0.50340   0.93585   0.10013   0.00000  Uiso   1.00
C168   C     0.50340   0.97040   0.08127   0.00000  Uiso   1.00
C169   C     0.50341   0.92697   0.86968   0.00000  Uiso   1.00
C170   C     0.50342   0.88808   0.85946   0.00000  Uiso   1.00
C171   C     0.50342   0.85924   0.88830   0.00000  Uiso   1.00
C172   C     0.50342   0.86945   0.92719   0.00000  Uiso   1.00
C173   C     0.50340   0.92696   0.13903   0.00000  Uiso   1.00
C174   C     0.50341   0.88807   0.14925   0.00000  Uiso   1.00
C175   C     0.50342   0.85923   0.12041   0.00000  Uiso   1.00
C176   C     0.50342   0.86944   0.08152   0.00000  Uiso   1.00
N14    N     0.50339   0.04244   0.04268   0.00000  Uiso   1.00
C177   C     0.50339   0.03785   0.08128   0.00000  Uiso   1.00
N15    N     0.50339   0.00412   0.09934   0.00000  Uiso   1.00
C178   C     0.50340   0.07239   0.10014   0.00000  Uiso   1.00
C179   C     0.50340   0.09990   0.07263   0.00000  Uiso   1.00
C180   C     0.50339   0.08104   0.03808   0.00000  Uiso   1.00
C181   C     0.50341   0.13880   0.08153   0.00000  Uiso   1.00
C182   C     0.50342   0.14902   0.12042   0.00000  Uiso   1.00
C183   C     0.50342   0.12018   0.14926   0.00000  Uiso   1.00
C184   C     0.50341   0.08128   0.13904   0.00000  Uiso   1.00
N16    N     0.50339   0.09911   0.00436   0.00000  Uiso   1.00
H9     H     0.50340   0.16037   0.94941   0.00000  Uiso   1.00
O129   O     0.50340   0.18742   0.87753   0.00000  Uiso   1.00
O130   O     0.50338   0.13096   0.82107   0.00000  Uiso   1.00
H10    H     0.50338   0.05909   0.84812   0.00000  Uiso   1.00
H11    H     0.50341   0.94918   0.84812   0.00000  Uiso   1.00
O131   O     0.50343   0.87730   0.82107   0.00000  Uiso   1.00
O132   O     0.50343   0.82084   0.87752   0.00000  Uiso   1.00
H12    H     0.50342   0.84789   0.94940   0.00000  Uiso   1.00
H13    H     0.50340   0.94916   0.16060   0.00000  Uiso   1.00
O133   O     0.50342   0.87728   0.18764   0.00000  Uiso   1.00
O134   O     0.50343   0.82083   0.13118   0.00000  Uiso   1.00
H14    H     0.50342   0.84789   0.05931   0.00000  Uiso   1.00
H15    H     0.50341   0.16036   0.05932   0.00000  Uiso   1.00
O135   O     0.50343   0.18741   0.13120   0.00000  Uiso   1.00
O136   O     0.50343   0.13095   0.18765   0.00000  Uiso   1.00
H16    H     0.50341   0.05908   0.16060   0.00000  Uiso   1.00
Ni2    Ni    0.50338   0.00413   0.00436   0.00000  Uiso   1.00
C185   C     0.86876   0.50417   0.08154   0.00000  Uiso   1.00
C186   C     0.85855   0.50417   0.12043   0.00000  Uiso   1.00
C187   C     0.88739   0.50417   0.14927   0.00000  Uiso   1.00
C188   C     0.92628   0.50418   0.13905   0.00000  Uiso   1.00
C189   C     0.93517   0.50418   0.10015   0.00000  Uiso   1.00
C190   C     0.90766   0.50418   0.07264   0.00000  Uiso   1.00
C191   C     0.92652   0.50418   0.03809   0.00000  Uiso   1.00
N17    N     0.96512   0.50419   0.04269   0.00000  Uiso   1.00
C192   C     0.96972   0.50419   0.08129   0.00000  Uiso   1.00
N18    N     0.00344   0.50418   0.09935   0.00000  Uiso   1.00
C193   C     0.03716   0.50417   0.08128   0.00000  Uiso   1.00
N19    N     0.04176   0.50418   0.04269   0.00000  Uiso   1.00
C194   C     0.08035   0.50417   0.03809   0.00000  Uiso   1.00
C195   C     0.09921   0.50416   0.07264   0.00000  Uiso   1.00
C196   C     0.07171   0.50416   0.10014   0.00000  Uiso   1.00
N20    N     0.04175   0.50419   0.96605   0.00000  Uiso   1.00
C197   C     0.08035   0.50418   0.97065   0.00000  Uiso   1.00
N21    N     0.09842   0.50417   0.00437   0.00000  Uiso   1.00
C198   C     0.09921   0.50418   0.93610   0.00000  Uiso   1.00
C199   C     0.07170   0.50418   0.90859   0.00000  Uiso   1.00
C200   C     0.03716   0.50419   0.92745   0.00000  Uiso   1.00
C201   C     0.08060   0.50415   0.13905   0.00000  Uiso   1.00
C202   C     0.11950   0.50414   0.14926   0.00000  Uiso   1.00
C203   C     0.14834   0.50414   0.12042   0.00000  Uiso   1.00
C204   C     0.13812   0.50415   0.08153   0.00000  Uiso   1.00
C205   C     0.08060   0.50418   0.86969   0.00000  Uiso   1.00
C206   C     0.11949   0.50417   0.85947   0.00000  Uiso   1.00
C207   C     0.14833   0.50417   0.88831   0.00000  Uiso   1.00
C208   C     0.13811   0.50417   0.92720   0.00000  Uiso   1.00
N22    N     0.96512   0.50418   0.96605   0.00000  Uiso   1.00
C209   C     0.96971   0.50418   0.92745   0.00000  Uiso   1.00
N23    N     0.00344   0.50418   0.90939   0.00000  Uiso   1.00
C210   C     0.93517   0.50417   0.90860   0.00000  Uiso   1.00
C211   C     0.90766   0.50417   0.93610   0.00000  Uiso   1.00
C212   C     0.92652   0.50418   0.97065   0.00000  Uiso   1.00
C213   C     0.86876   0.50416   0.92721   0.00000  Uiso   1.00
C214   C     0.85854   0.50415   0.88832   0.00000  Uiso   1.00
C215   C     0.88738   0.50415   0.85948   0.00000  Uiso   1.00
C216   C     0.92627   0.50417   0.86969   0.00000  Uiso   1.00
N24    N     0.90845   0.50418   0.00437   0.00000  Uiso   1.00
H17    H     0.84720   0.50417   0.05933   0.00000  Uiso   1.00
O137   O     0.82015   0.50416   0.13121   0.00000  Uiso   1.00
O138   O     0.87661   0.50416   0.18766   0.00000  Uiso   1.00
H18    H     0.94849   0.50418   0.16061   0.00000  Uiso   1.00
H19    H     0.05840   0.50415   0.16061   0.00000  Uiso   1.00
O139   O     0.13028   0.50413   0.18765   0.00000  Uiso   1.00
O140   O     0.18673   0.50413   0.13120   0.00000  Uiso   1.00
H20    H     0.15968   0.50415   0.05932   0.00000  Uiso   1.00
H21    H     0.05839   0.50418   0.84813   0.00000  Uiso   1.00
O141   O     0.13027   0.50417   0.82108   0.00000  Uiso   1.00
O142   O     0.18672   0.50416   0.87753   0.00000  Uiso   1.00
H22    H     0.15968   0.50417   0.94941   0.00000  Uiso   1.00
H23    H     0.84720   0.50416   0.94942   0.00000  Uiso   1.00
O143   O     0.82015   0.50414   0.87754   0.00000  Uiso   1.00
O144   O     0.87660   0.50414   0.82108   0.00000  Uiso   1.00
H24    H     0.94848   0.50417   0.84813   0.00000  Uiso   1.00
Ni3    Ni    0.00344   0.50418   0.00437   0.00000  Uiso   1.00
Zn1    Zn    0.29005   0.29073   0.41598   0.00000  Uiso   1.00
Zn2    Zn    0.71683   0.29074   0.41598   0.00000  Uiso   1.00
Zn3    Zn    0.71681   0.71753   0.41599   0.00000  Uiso   1.00
Zn4    Zn    0.29005   0.71751   0.41597   0.00000  Uiso   1.00
Zn5    Zn    0.29006   0.71752   0.59273   0.00000  Uiso   1.00
Zn6    Zn    0.29004   0.29077   0.59275   0.00000  Uiso   1.00
Zn7    Zn    0.71681   0.29073   0.59275   0.00000  Uiso   1.00
Zn8    Zn    0.71681   0.71749   0.59275   0.00000  Uiso   1.00
Zn9    Zn    0.41507   0.29073   0.29100   0.00000  Uiso   1.00
Zn10   Zn    0.71683   0.41575   0.29099   0.00000  Uiso   1.00
Zn11   Zn    0.59182   0.71752   0.29098   0.00000  Uiso   1.00
Zn12   Zn    0.29006   0.59249   0.29099   0.00000  Uiso   1.00
Zn13   Zn    0.41506   0.71752   0.71773   0.00000  Uiso   1.00
Zn14   Zn    0.29005   0.41577   0.71775   0.00000  Uiso   1.00
Zn15   Zn    0.59181   0.29073   0.71775   0.00000  Uiso   1.00
Zn16   Zn    0.71681   0.59248   0.71775   0.00000  Uiso   1.00
Zn17   Zn    0.29006   0.41572   0.29097   0.00000  Uiso   1.00
Zn18   Zn    0.29005   0.59254   0.71774   0.00000  Uiso   1.00
Zn19   Zn    0.41504   0.29077   0.71775   0.00000  Uiso   1.00
Zn20   Zn    0.71682   0.41572   0.71776   0.00000  Uiso   1.00
Zn21   Zn    0.59182   0.71750   0.71776   0.00000  Uiso   1.00
Zn22   Zn    0.71682   0.59252   0.29100   0.00000  Uiso   1.00
Zn23   Zn    0.41505   0.71750   0.29097   0.00000  Uiso   1.00
Zn24   Zn    0.59183   0.29074   0.29098   0.00000  Uiso   1.00
Zn25   Zn    0.18154   0.18224   0.50439   0.00000  Uiso   1.00
Zn26   Zn    0.82532   0.18224   0.50438   0.00000  Uiso   1.00
Zn27   Zn    0.82532   0.82601   0.50440   0.00000  Uiso   1.00
Zn28   Zn    0.18155   0.82602   0.50435   0.00000  Uiso   1.00
Zn29   Zn    0.50344   0.18223   0.18248   0.00000  Uiso   1.00
Zn30   Zn    0.82533   0.50415   0.18249   0.00000  Uiso   1.00
Zn31   Zn    0.50343   0.82600   0.18246   0.00000  Uiso   1.00
Zn32   Zn    0.18156   0.50412   0.18248   0.00000  Uiso   1.00
Zn33   Zn    0.50344   0.82602   0.82624   0.00000  Uiso   1.00
Zn34   Zn    0.18155   0.50416   0.82625   0.00000  Uiso   1.00
Zn35   Zn    0.50340   0.18224   0.82625   0.00000  Uiso   1.00
Zn36   Zn    0.82532   0.50413   0.82626   0.00000  Uiso   1.00
loop_
_geom_bond_atom_site_label_1
_geom_bond_atom_site_label_2
_geom_bond_distance
_geom_bond_site_symmetry_2
_ccdc_geom_bond_type
C1     C2      1.399   .     A
C1     C6      1.414   .     A
C1     O1      1.396   .     S
C2     C3      1.414   .     A
C2     O2      1.396   .     S
C3     C4      1.399   .     A
C3     O3      1.396   .     S
C4     C5      1.414   .     A
C4     O4      1.396   .     S
C5     C6      1.399   .     A
C5     O5      1.396   .     S
C6     O6      1.396   .     S
O1     Zn1     1.800   .     S
O2     Zn9     1.800   .     S
O3     Zn9     1.800   .     S
O4     Zn17    1.800   .     S
O5     Zn17    1.800   .     S
O6     Zn1     1.800   .     S
C7     C8      1.399   .     A
C7     C12     1.414   .     A
C7     O7      1.396   .     S
C8     C9      1.414   .     A
C8     O8      1.396   .     S
C9     C10     1.399   .     A
C9     O9      1.396   .     S
C10    C11     1.414   .     A
C10    O10     1.396   .     S
C11    C12     1.399   .     A
C11    O11     1.396   .     S
C12    O12     1.396   .     S
O7     Zn10    1.800   .     S
O8     Zn24    1.800   .     S
O9     Zn24    1.800   .     S
O10    Zn2     1.800   .     S
O11    Zn2     1.800   .     S
O12    Zn10    1.800   .     S
C13    C14     1.399   .     A
C13    C18     1.414   .     A
C13    O13     1.396   .     S
C14    C15     1.414   .     A
C14    O14     1.396   .     S
C15    C16     1.399   .     A
C15    O15     1.396   .     S
C16    C17     1.414   .     A
C16    O16     1.396   .     S
C17    C18     1.399   .     A
C17    O17     1.396   .     S
C18    O18     1.396   .     S
O13    Zn3     1.800   .     S
O14    Zn11    1.800   .     S
O15    Zn11    1.800   .     S
O16    Zn22    1.800   .     S
O17    Zn22    1.800   .     S
O18    Zn3     1.800   .     S
C19    C20     1.399   .     A
C19    C24     1.414   .     A
C19    O19     1.396   .     S
C20    C21     1.414   .     A
C20    O20     1.396   .     S
C21    C22     1.399   .     A
C21    O21     1.396   .     S
C22    C23     1.414   .     A
C22    O22     1.396   .     S
C23    C24     1.399   .     A
C23    O23     1.396   .     S
C24    O24     1.396   .     S
O19    Zn12    1.800   .     S
O20    Zn23    1.800   .     S
O21    Zn23    1.800   .     S
O22    Zn4     1.800   .     S
O23    Zn4     1.800   .     S
O24    Zn12    1.800   .     S
C25    C26     1.399   .     A
C25    C30     1.414   .     A
C25    O25     1.396   .     S
C26    C27     1.414   .     A
C26    O26     1.396   .     S
C27    C28     1.399   .     A
C27    O27     1.396   .     S
C28    C29     1.414   .     A
C28    O28     1.396   .     S
C29    C30     1.399   .     A
C29    O29     1.396   .     S
C30    O30     1.396   .     S
O25    Zn18    1.800   .     S
O26    Zn13    1.800   .     S
O27    Zn13    1.800   .     S
O28    Zn5     1.800   .     S
O29    Zn5     1.800   .     S
O30    Zn18    1.800   .     S
C31    C32     1.399   .     A
C31    C36     1.414   .     A
C31    O31     1.396   .     S
C32    C33     1.414   .     A
C32    O32     1.396   .     S
C33    C34     1.399   .     A
C33    O33     1.396   .     S
C34    C35     1.414   .     A
C34    O34     1.396   .     S
C35    C36     1.399   .     A
C35    O35     1.396   .     S
C36    O36     1.396   .     S
O31    Zn19    1.800   .     S
O32    Zn14    1.800   .     S
O33    Zn14    1.800   .     S
O34    Zn6     1.800   .     S
O35    Zn6     1.800   .     S
O36    Zn19    1.800   .     S
C37    C38     1.399   .     A
C37    C42     1.414   .     A
C37    O37     1.396   .     S
C38    C39     1.414   .     A
C38    O38     1.396   .     S
C39    C40     1.399   .     A
C39    O39     1.396   .     S
C40    C41     1.414   .     A
C40    O40     1.396   .     S
C41    C42     1.399   .     A
C41    O41     1.396   .     S
C42    O42     1.396   .     S
O37    Zn20    1.800   .     S
O38    Zn15    1.800   .     S
O39    Zn15    1.800   .     S
O40    Zn7     1.800   .     S
O41    Zn7     1.800   .     S
O42    Zn20    1.800   .     S
C43    C44     1.399   .     A
C43    C48     1.414   .     A
C43    O43     1.396   .     S
C44    C45     1.414   .     A
C44    O44     1.396   .     S
C45    C46     1.399   .     A
C45    O45     1.396   .     S
C46    C47     1.414   .     A
C46    O46     1.396   .     S
C47    C48     1.399   .     A
C47    O47     1.396   .     S
C48    O48     1.396   .     S
O43    Zn8     1.800   .     S
O44    Zn21    1.800   .     S
O45    Zn21    1.800   .     S
O46    Zn16    1.800   .     S
O47    Zn16    1.800   .     S
O48    Zn8     1.800   .     S
C49    C50     1.398   .     A
C49    C54     1.413   .     A
C49    O49     1.395   .     S
C50    C51     1.413   .     A
C50    O50     1.395   .     S
C51    C52     1.399   .     A
C51    O51     1.397   .     S
C52    C53     1.415   .     A
C52    O52     1.396   .     S
C53    C54     1.399   .     A
C53    O53     1.396   .     S
C54    O54     1.397   .     S
O49    Zn1     1.798   .     S
O50    Zn6     1.798   .     S
O51    Zn6     1.803   .     S
O52    Zn25    1.801   .     S
O53    Zn25    1.801   .     S
O54    Zn1     1.803   .     S
C55    C56     1.398   .     A
C55    C60     1.413   .     A
C55    O55     1.395   .     S
C56    C57     1.413   .     A
C56    O56     1.395   .     S
C57    C58     1.399   .     A
C57    O57     1.397   .     S
C58    C59     1.415   .     A
C58    O58     1.396   .     S
C59    C60     1.399   .     A
C59    O59     1.396   .     S
C60    O60     1.397   .     S
O55    Zn7     1.798   .     S
O56    Zn2     1.798   .     S
O57    Zn2     1.803   .     S
O58    Zn26    1.801   .     S
O59    Zn26    1.801   .     S
O60    Zn7     1.803   .     S
C61    C62     1.398   .     A
C61    C66     1.413   .     A
C61    O61     1.395   .     S
C62    C63     1.413   .     A
C62    O62     1.395   .     S
C63    C64     1.399   .     A
C63    O63     1.397   .     S
C64    C65     1.415   .     A
C64    O64     1.396   .     S
C65    C66     1.399   .     A
C65    O65     1.396   .     S
C66    O66     1.397   .     S
O61    Zn3     1.798   .     S
O62    Zn8     1.798   .     S
O63    Zn8     1.803   .     S
O64    Zn27    1.801   .     S
O65    Zn27    1.801   .     S
O66    Zn3     1.803   .     S
C67    C68     1.398   .     A
C67    C72     1.413   .     A
C67    O67     1.395   .     S
C68    C69     1.413   .     A
C68    O68     1.395   .     S
C69    C70     1.399   .     A
C69    O69     1.397   .     S
C70    C71     1.415   .     A
C70    O70     1.396   .     S
C71    C72     1.399   .     A
C71    O71     1.396   .     S
C72    O72     1.397   .     S
O67    Zn4     1.798   .     S
O68    Zn5     1.798   .     S
O69    Zn5     1.803   .     S
O70    Zn28    1.801   .     S
O71    Zn28    1.801   .     S
O72    Zn4     1.803   .     S
C73    C74     1.398   .     A
C73    C78     1.413   .     A
C73    O73     1.395   .     S
C74    C75     1.413   .     A
C74    O74     1.395   .     S
C75    C76     1.399   .     A
C75    O75     1.397   .     S
C76    C77     1.415   .     A
C76    O76     1.396   .     S
C77    C78     1.399   .     A
C77    O77     1.396   .     S
C78    O78     1.397   .     S
O73    Zn9     1.798   .     S
O74    Zn24    1.798   .     S
O75    Zn24    1.803   .     S
O76    Zn29    1.801   .     S
O77    Zn29    1.801   .     S
O78    Zn9     1.803   .     S
C79    C80     1.399   .     A
C79    C84     1.413   .     A
C79    O79     1.397   .     S
C80    C81     1.415   .     A
C80    O80     1.396   .     S
C81    C82     1.399   .     A
C81    O81     1.396   .     S
C82    C83     1.413   .     A
C82    O82     1.397   .     S
C83    C84     1.398   .     A
C83    O83     1.395   .     S
C84    O84     1.395   .     S
O79    Zn10    1.803   .     S
O80    Zn30    1.801   .     S
O81    Zn30    1.801   .     S
O82    Zn22    1.803   .     S
O83    Zn22    1.798   .     S
O84    Zn10    1.798   .     S
C85    C86     1.398   .     A
C85    C90     1.413   .     A
C85    O85     1.395   .     S
C86    C87     1.413   .     A
C86    O86     1.395   .     S
C87    C88     1.399   .     A
C87    O87     1.397   .     S
C88    C89     1.415   .     A
C88    O88     1.396   .     S
C89    C90     1.399   .     A
C89    O89     1.396   .     S
C90    O90     1.397   .     S
O85    Zn23    1.798   .     S
O86    Zn11    1.798   .     S
O87    Zn11    1.803   .     S
O88    Zn31    1.801   .     S
O89    Zn31    1.801   .     S
O90    Zn23    1.803   .     S
C91    C92     1.399   .     A
C91    C96     1.415   .     A
C91    O91     1.396   .     S
C92    C93     1.413   .     A
C92    O92     1.397   .     S
C93    C94     1.398   .     A
C93    O93     1.395   .     S
C94    C95     1.413   .     A
C94    O94     1.395   .     S
C95    C96     1.399   .     A
C95    O95     1.397   .     S
C96    O96     1.396   .     S
O91    Zn32    1.801   .     S
O92    Zn12    1.803   .     S
O93    Zn12    1.798   .     S
O94    Zn17    1.798   .     S
O95    Zn17    1.803   .     S
O96    Zn32    1.801   .     S
C97    C98     1.398   .     A
C97    C102    1.413   .     A
C97    O97     1.395   .     S
C98    C99     1.413   .     A
C98    O98     1.395   .     S
C99    C100    1.399   .     A
C99    O99     1.397   .     S
C100   C101    1.415   .     A
C100   O100    1.396   .     S
C101   C102    1.399   .     A
C101   O101    1.396   .     S
C102   O102    1.397   .     S
O97    Zn13    1.798   .     S
O98    Zn21    1.798   .     S
O99    Zn21    1.803   .     S
O100   Zn33    1.801   .     S
O101   Zn33    1.801   .     S
O102   Zn13    1.803   .     S
C103   C104    1.399   .     A
C103   C108    1.415   .     A
C103   O103    1.396   .     S
C104   C105    1.413   .     A
C104   O104    1.397   .     S
C105   C106    1.398   .     A
C105   O105    1.395   .     S
C106   C107    1.413   .     A
C106   O106    1.395   .     S
C107   C108    1.399   .     A
C107   O107    1.397   .     S
C108   O108    1.396   .     S
O103   Zn34    1.801   .     S
O104   Zn18    1.803   .     S
O105   Zn18    1.798   .     S
O106   Zn14    1.798   .     S
O107   Zn14    1.803   .     S
O108   Zn34    1.801   .     S
C109   C110    1.398   .     A
C109   C114    1.413   .     A
C109   O109    1.395   .     S
C110   C111    1.413   .     A
C110   O110    1.395   .     S
C111   C112    1.399   .     A
C111   O111    1.397   .     S
C112   C113    1.415   .     A
C112   O112    1.396   .     S
C113   C114    1.399   .     A
C113   O113    1.396   .     S
C114   O114    1.397   .     S
O109   Zn19    1.798   .     S
O110   Zn15    1.798   .     S
O111   Zn15    1.803   .     S
O112   Zn35    1.801   .     S
O113   Zn35    1.801   .     S
O114   Zn19    1.803   .     S
C115   C116    1.399   .     A
C115   C120    1.413   .     A
C115   O115    1.397   .     S
C116   C117    1.415   .     A
C116   O116    1.396   .     S
C117   C118    1.399   .     A
C117   O117    1.396   .     S
C118   C119    1.413   .     A
C118   O118    1.397   .     S
C119   C120    1.398   .     A
C119   O119    1.395   .     S
C120   O120    1.395   .     S
O115   Zn20    1.803   .     S
O116   Zn36    1.801   .     S
O117   Zn36    1.801   .     S
O118   Zn16    1.803   .     S
O119   Zn16    1.798   .     S
O120   Zn20    1.798   .     S
C121   C122    1.406   .     A
C121   C126    1.396   .     A
C121   H1      1.083   .     S
C122   C123    1.427   .     A
C122   O121    1.395   .     S
C123   C124    1.406   .     A
C123   O122    1.395   .     S
C124   C125    1.396   .     A
C124   H2      1.083   .     S
C125   C126    1.361   .     A
C125   C128    1.377   .     A
C126   C127    1.377   .     A
C127   N1      1.360   .     A
C127   N8      1.338   1_565 A
N1     C128    1.360   .     A
N1     Ni1     1.895   1_665 S
C128   N2      1.338   1_655 A
N2     C128    1.338   1_455 A
N2     C129    1.338   .     A
C129   N3      1.360   .     A
C129   C132    1.377   .     A
N3     C130    1.360   .     A
N3     Ni1     1.895   1_565 S
C130   C131    1.377   .     A
C130   N5      1.338   1_565 A
C131   C132    1.361   .     A
C131   C140    1.396   .     A
C132   C137    1.396   .     A
N4     C133    1.360   .     A
N4     C136    1.360   .     A
N4     Ni1     1.895   .     S
C133   N5      1.338   .     A
C133   C134    1.377   .     A
N5     C130    1.338   1_545 A
C134   C135    1.361   .     A
C134   C144    1.396   .     A
C135   C136    1.377   .     A
C135   C141    1.396   .     A
C136   N7      1.338   .     A
C137   C138    1.406   .     A
C137   H3      1.083   .     S
C138   C139    1.427   .     A
C138   O123    1.395   .     S
C139   C140    1.406   .     A
C139   O124    1.395   .     S
C140   H4      1.083   .     S
C141   C142    1.406   .     A
C141   H5      1.083   .     S
C142   C143    1.427   .     A
C142   O125    1.395   .     S
C143   C144    1.406   .     A
C143   O126    1.395   .     S
C144   H6      1.083   .     S
N6     C145    1.360   .     A
N6     C148    1.360   .     A
N6     Ni1     1.895   1_655 S
C145   N7      1.338   1_655 A
C145   C146    1.377   .     A
N7     C145    1.338   1_455 A
C146   C147    1.361   .     A
C146   C152    1.396   .     A
C147   C148    1.377   .     A
C147   C149    1.396   .     A
C148   N8      1.338   .     A
C149   C150    1.406   .     A
C149   H7      1.083   .     S
C150   C151    1.427   .     A
C150   O127    1.395   .     S
C151   C152    1.406   .     A
C151   O128    1.395   .     S
C152   H8      1.083   .     S
N8     C127    1.338   1_545 A
O121   Zn27    1.803   .     S
O122   Zn27    1.803   .     S
O123   Zn28    1.803   .     S
O124   Zn28    1.803   .     S
O125   Zn25    1.803   .     S
O126   Zn25    1.803   .     S
O127   Zn26    1.803   .     S
O128   Zn26    1.803   .     S
Ni1    N6      1.895   1_455 S
Ni1    N3      1.895   1_545 S
Ni1    N1      1.895   1_445 S
C153   C154    1.406   .     A
C153   C158    1.396   .     A
C153   H9      1.083   .     S
C154   C155    1.427   .     A
C154   O129    1.395   .     S
C155   C156    1.406   .     A
C155   O130    1.395   .     S
C156   C157    1.396   .     A
C156   H10     1.083   .     S
C157   C158    1.361   .     A
C157   C160    1.377   .     A
C158   C159    1.377   .     A
C159   N9      1.360   .     A
C159   N16     1.338   1_556 A
N9     C160    1.360   .     A
N9     Ni2     1.895   1_556 S
C160   N10     1.338   .     A
N10    C161    1.338   1_545 A
C161   N10     1.338   1_565 A
C161   N11     1.360   .     A
C161   C164    1.377   .     A
N11    C162    1.360   .     A
N11    Ni2     1.895   1_566 S
C162   C163    1.377   .     A
C162   N13     1.338   1_556 A
C163   C164    1.361   .     A
C163   C172    1.396   .     A
C164   C169    1.396   .     A
N12    C165    1.360   .     A
N12    C168    1.360   .     A
N12    Ni2     1.895   1_565 S
C165   N13     1.338   .     A
C165   C166    1.377   .     A
N13    C162    1.338   1_554 A
C166   C167    1.361   .     A
C166   C176    1.396   .     A
C167   C168    1.377   .     A
C167   C173    1.396   .     A
C168   N15     1.338   1_565 A
C169   C170    1.406   .     A
C169   H11     1.083   .     S
C170   C171    1.427   .     A
C170   O131    1.395   .     S
C171   C172    1.406   .     A
C171   O132    1.395   .     S
C172   H12     1.083   .     S
C173   C174    1.406   .     A
C173   H13     1.083   .     S
C174   C175    1.427   .     A
C174   O133    1.395   .     S
C175   C176    1.406   .     A
C175   O134    1.395   .     S
C176   H14     1.083   .     S
N14    C177    1.360   .     A
N14    C180    1.360   .     A
N14    Ni2     1.895   .     S
C177   N15     1.338   .     A
C177   C178    1.377   .     A
N15    C168    1.338   1_545 A
C178   C179    1.361   .     A
C178   C184    1.396   .     A
C179   C180    1.377   .     A
C179   C181    1.396   .     A
C180   N16     1.338   .     A
C181   C182    1.406   .     A
C181   H15     1.083   .     S
C182   C183    1.427   .     A
C182   O135    1.395   .     S
C183   C184    1.406   .     A
C183   O136    1.395   .     S
C184   H16     1.083   .     S
N16    C159    1.338   1_554 A
O129   Zn35    1.803   .     S
O130   Zn35    1.803   .     S
O131   Zn33    1.803   .     S
O132   Zn33    1.803   .     S
O133   Zn31    1.803   .     S
O134   Zn31    1.803   .     S
O135   Zn29    1.803   .     S
O136   Zn29    1.803   .     S
Ni2    N12     1.895   1_545 S
Ni2    N9      1.895   1_554 S
Ni2    N11     1.895   1_544 S
C185   C186    1.406   .     A
C185   C190    1.396   .     A
C185   H17     1.083   .     S
C186   C187    1.427   .     A
C186   O137    1.395   .     S
C187   C188    1.406   .     A
C187   O138    1.395   .     S
C188   C189    1.396   .     A
C188   H18     1.083   .     S
C189   C190    1.361   .     A
C189   C192    1.377   .     A
C190   C191    1.377   .     A
C191   N17     1.360   .     A
C191   N24     1.338   .     A
N17    C192    1.360   .     A
N17    Ni3     1.895   1_655 S
C192   N18     1.338   1_655 A
N18    C192    1.338   1_455 A
N18    C193    1.338   .     A
C193   N19     1.360   .     A
C193   C196    1.377   .     A
N19    C194    1.360   .     A
N19    Ni3     1.895   .     S
C194   C195    1.377   .     A
C194   N21     1.338   .     A
C195   C196    1.361   .     A
C195   C204    1.396   .     A
C196   C201    1.396   .     A
N20    C197    1.360   .     A
N20    C200    1.360   .     A
N20    Ni3     1.895   1_556 S
C197   N21     1.338   1_556 A
C197   C198    1.377   .     A
N21    C197    1.338   1_554 A
C198   C199    1.361   .     A
C198   C208    1.396   .     A
C199   C200    1.377   .     A
C199   C205    1.396   .     A
C200   N23     1.338   .     A
C201   C202    1.406   .     A
C201   H19     1.083   .     S
C202   C203    1.427   .     A
C202   O139    1.395   .     S
C203   C204    1.406   .     A
C203   O140    1.395   .     S
C204   H20     1.083   .     S
C205   C206    1.406   .     A
C205   H21     1.083   .     S
C206   C207    1.427   .     A
C206   O141    1.395   .     S
C207   C208    1.406   .     A
C207   O142    1.395   .     S
C208   H22     1.083   .     S
N22    C209    1.360   .     A
N22    C212    1.360   .     A
N22    Ni3     1.895   1_656 S
C209   N23     1.338   1_655 A
C209   C210    1.377   .     A
N23    C209    1.338   1_455 A
C210   C211    1.361   .     A
C210   C216    1.396   .     A
C211   C212    1.377   .     A
C211   C213    1.396   .     A
C212   N24     1.338   1_556 A
C213   C214    1.406   .     A
C213   H23     1.083   .     S
C214   C215    1.427   .     A
C214   O143    1.395   .     S
C215   C216    1.406   .     A
C215   O144    1.395   .     S
C216   H24     1.083   .     S
N24    C212    1.338   1_554 A
O137   Zn30    1.803   .     S
O138   Zn30    1.803   .     S
O139   Zn32    1.803   .     S
O140   Zn32    1.803   .     S
O141   Zn34    1.803   .     S
O142   Zn34    1.803   .     S
O143   Zn36    1.803   .     S
O144   Zn36    1.803   .     S
Ni3    N17     1.895   1_455 S
Ni3    N20     1.895   1_554 S
Ni3    N22     1.895   1_454 S
