data_tfe-TP_O-PcM_O-Zntet
_audit_creation_date              2021-11-06
_audit_creation_method            'Materials Studio'
_symmetry_space_group_name_H-M    'P1'
_symmetry_Int_Tables_number       1
_symmetry_cell_setting            triclinic
loop_
_symmetry_equiv_pos_as_xyz
  x,y,z
_cell_length_a                    50.5698
_cell_length_b                    50.5763
_cell_length_c                    50.5752
_cell_angle_alpha                 90.0040
_cell_angle_beta                  90.0082
_cell_angle_gamma                 90.0048
loop_
_atom_site_label
_atom_site_type_symbol
_atom_site_fract_x
_atom_site_fract_y
_atom_site_fract_z
_atom_site_U_iso_or_equiv
_atom_site_adp_type
_atom_site_occupancy
C1     C     0.27735   0.29747   0.31755   0.00000  Uiso   1.00
C2     C     0.29697   0.27710   0.31706   0.00000  Uiso   1.00
C3     C     0.31693   0.27720   0.29707   0.00000  Uiso   1.00
C4     C     0.31713   0.29753   0.27740   0.00000  Uiso   1.00
C5     C     0.29700   0.31734   0.27736   0.00000  Uiso   1.00
C6     C     0.27726   0.31747   0.29760   0.00000  Uiso   1.00
C7     C     0.33799   0.29764   0.25848   0.00000  Uiso   1.00
C8     C     0.35761   0.27844   0.25854   0.00000  Uiso   1.00
C9     C     0.35719   0.25835   0.27747   0.00000  Uiso   1.00
C10    C     0.33726   0.25771   0.29635   0.00000  Uiso   1.00
C11    C     0.25838   0.29727   0.33835   0.00000  Uiso   1.00
C12    C     0.25852   0.27792   0.35781   0.00000  Uiso   1.00
C13    C     0.27742   0.25781   0.35713   0.00000  Uiso   1.00
C14    C     0.29621   0.25732   0.33710   0.00000  Uiso   1.00
C15    C     0.25790   0.33793   0.29727   0.00000  Uiso   1.00
C16    C     0.25799   0.35754   0.27807   0.00000  Uiso   1.00
C17    C     0.27705   0.35720   0.25810   0.00000  Uiso   1.00
C18    C     0.29601   0.33735   0.25758   0.00000  Uiso   1.00
H1     H     0.34023   0.31258   0.24355   0.00000  Uiso   1.00
O1     O     0.37810   0.27930   0.24004   0.00000  Uiso   1.00
O2     O     0.37723   0.23935   0.27761   0.00000  Uiso   1.00
H2     H     0.33876   0.24175   0.31028   0.00000  Uiso   1.00
H3     H     0.24320   0.31196   0.34060   0.00000  Uiso   1.00
O3     O     0.24011   0.27863   0.37837   0.00000  Uiso   1.00
O4     O     0.27761   0.23862   0.37699   0.00000  Uiso   1.00
H4     H     0.30996   0.24117   0.33824   0.00000  Uiso   1.00
H5     H     0.24234   0.33967   0.31162   0.00000  Uiso   1.00
O5     O     0.23927   0.37783   0.27870   0.00000  Uiso   1.00
O6     O     0.27711   0.37713   0.23899   0.00000  Uiso   1.00
H6     H     0.30957   0.33844   0.24126   0.00000  Uiso   1.00
C19    C     0.72389   0.31722   0.29751   0.00000  Uiso   1.00
C20    C     0.70438   0.31685   0.27702   0.00000  Uiso   1.00
C21    C     0.68452   0.29677   0.27680   0.00000  Uiso   1.00
C22    C     0.68423   0.27697   0.29700   0.00000  Uiso   1.00
C23    C     0.70424   0.27682   0.31691   0.00000  Uiso   1.00
C24    C     0.72383   0.29720   0.31743   0.00000  Uiso   1.00
C25    C     0.66331   0.25814   0.29698   0.00000  Uiso   1.00
C26    C     0.64374   0.25836   0.27774   0.00000  Uiso   1.00
C27    C     0.64434   0.27732   0.25768   0.00000  Uiso   1.00
C28    C     0.66437   0.29609   0.25713   0.00000  Uiso   1.00
C29    C     0.74292   0.33798   0.29749   0.00000  Uiso   1.00
C30    C     0.74272   0.35769   0.27838   0.00000  Uiso   1.00
C31    C     0.72376   0.35726   0.25831   0.00000  Uiso   1.00
C32    C     0.70506   0.33717   0.25754   0.00000  Uiso   1.00
C33    C     0.74277   0.29699   0.33827   0.00000  Uiso   1.00
C34    C     0.74253   0.27766   0.35776   0.00000  Uiso   1.00
C35    C     0.72379   0.25741   0.35688   0.00000  Uiso   1.00
C36    C     0.70521   0.25680   0.33668   0.00000  Uiso   1.00
H7     H     0.66090   0.24324   0.31193   0.00000  Uiso   1.00
O7     O     0.62311   0.24004   0.27859   0.00000  Uiso   1.00
O8     O     0.62433   0.27764   0.23865   0.00000  Uiso   1.00
H8     H     0.66307   0.30997   0.24111   0.00000  Uiso   1.00
H9     H     0.75823   0.33994   0.31207   0.00000  Uiso   1.00
O9     O     0.76115   0.37822   0.27929   0.00000  Uiso   1.00
O10    O     0.72352   0.37734   0.23937   0.00000  Uiso   1.00
H10    H     0.69126   0.33853   0.24144   0.00000  Uiso   1.00
H11    H     0.75803   0.31160   0.34047   0.00000  Uiso   1.00
O11    O     0.76081   0.27843   0.37843   0.00000  Uiso   1.00
O12    O     0.72361   0.23813   0.37665   0.00000  Uiso   1.00
H12    H     0.69194   0.24021   0.33727   0.00000  Uiso   1.00
C37    C     0.72394   0.70397   0.31731   0.00000  Uiso   1.00
C38    C     0.70411   0.72412   0.31716   0.00000  Uiso   1.00
C39    C     0.68397   0.72395   0.29736   0.00000  Uiso   1.00
C40    C     0.68414   0.70412   0.27720   0.00000  Uiso   1.00
C41    C     0.70401   0.68406   0.27730   0.00000  Uiso   1.00
C42    C     0.72415   0.68422   0.29714   0.00000  Uiso   1.00
C43    C     0.66407   0.70492   0.25746   0.00000  Uiso   1.00
C44    C     0.64403   0.72367   0.25806   0.00000  Uiso   1.00
C45    C     0.64344   0.74259   0.27816   0.00000  Uiso   1.00
C46    C     0.66307   0.74283   0.29737   0.00000  Uiso   1.00
C47    C     0.74282   0.70392   0.33820   0.00000  Uiso   1.00
C48    C     0.74264   0.72313   0.35781   0.00000  Uiso   1.00
C49    C     0.72379   0.74329   0.35721   0.00000  Uiso   1.00
C50    C     0.70500   0.74390   0.33718   0.00000  Uiso   1.00
C51    C     0.74401   0.66428   0.29621   0.00000  Uiso   1.00
C52    C     0.74347   0.64430   0.27739   0.00000  Uiso   1.00
C53    C     0.72337   0.64372   0.25846   0.00000  Uiso   1.00
C54    C     0.70411   0.66328   0.25830   0.00000  Uiso   1.00
H13    H     0.66303   0.69133   0.24117   0.00000  Uiso   1.00
O13    O     0.62408   0.72342   0.23896   0.00000  Uiso   1.00
O14    O     0.62285   0.76097   0.27895   0.00000  Uiso   1.00
H14    H     0.66081   0.75784   0.31222   0.00000  Uiso   1.00
H15    H     0.75779   0.68903   0.34050   0.00000  Uiso   1.00
O15    O     0.76102   0.72225   0.37839   0.00000  Uiso   1.00
O16    O     0.72362   0.76238   0.37716   0.00000  Uiso   1.00
H16    H     0.69146   0.76025   0.33816   0.00000  Uiso   1.00
H17    H     0.76036   0.66332   0.30974   0.00000  Uiso   1.00
O17    O     0.76261   0.62441   0.27756   0.00000  Uiso   1.00
O18    O     0.72262   0.62321   0.24001   0.00000  Uiso   1.00
H18    H     0.68933   0.66105   0.24321   0.00000  Uiso   1.00
C55    C     0.27707   0.68424   0.29729   0.00000  Uiso   1.00
C56    C     0.29724   0.68406   0.27746   0.00000  Uiso   1.00
C57    C     0.31708   0.70417   0.27733   0.00000  Uiso   1.00
C58    C     0.31668   0.72456   0.29693   0.00000  Uiso   1.00
C59    C     0.29667   0.72461   0.31684   0.00000  Uiso   1.00
C60    C     0.27705   0.70424   0.31723   0.00000  Uiso   1.00
C61    C     0.33690   0.74415   0.29628   0.00000  Uiso   1.00
C62    C     0.35691   0.74358   0.27752   0.00000  Uiso   1.00
C63    C     0.35736   0.72364   0.25843   0.00000  Uiso   1.00
C64    C     0.33774   0.70443   0.25819   0.00000  Uiso   1.00
C65    C     0.25745   0.66405   0.29661   0.00000  Uiso   1.00
C66    C     0.25807   0.64399   0.27787   0.00000  Uiso   1.00
C67    C     0.27798   0.64359   0.25875   0.00000  Uiso   1.00
C68    C     0.29705   0.66335   0.25838   0.00000  Uiso   1.00
C69    C     0.25816   0.70427   0.33812   0.00000  Uiso   1.00
C70    C     0.25829   0.72358   0.35764   0.00000  Uiso   1.00
C71    C     0.27714   0.74374   0.35697   0.00000  Uiso   1.00
C72    C     0.29587   0.74433   0.33693   0.00000  Uiso   1.00
H19    H     0.33828   0.76015   0.31017   0.00000  Uiso   1.00
O19    O     0.37694   0.76257   0.27790   0.00000  Uiso   1.00
O20    O     0.37787   0.72293   0.23997   0.00000  Uiso   1.00
H20    H     0.33974   0.68993   0.24280   0.00000  Uiso   1.00
H21    H     0.24122   0.66295   0.31026   0.00000  Uiso   1.00
O21    O     0.23908   0.62394   0.27819   0.00000  Uiso   1.00
O22    O     0.27869   0.62312   0.24024   0.00000  Uiso   1.00
H22    H     0.31144   0.66148   0.24288   0.00000  Uiso   1.00
H23    H     0.24321   0.68936   0.34046   0.00000  Uiso   1.00
O23    O     0.23994   0.72278   0.37825   0.00000  Uiso   1.00
O24    O     0.27737   0.76288   0.37687   0.00000  Uiso   1.00
H24    H     0.30959   0.76050   0.33814   0.00000  Uiso   1.00
C73    C     0.29711   0.72382   0.68395   0.00000  Uiso   1.00
C74    C     0.27685   0.70408   0.68434   0.00000  Uiso   1.00
C75    C     0.27690   0.68420   0.70439   0.00000  Uiso   1.00
C76    C     0.29726   0.68397   0.72402   0.00000  Uiso   1.00
C77    C     0.31725   0.70392   0.72388   0.00000  Uiso   1.00
C78    C     0.31704   0.72400   0.70397   0.00000  Uiso   1.00
C79    C     0.29709   0.66337   0.74323   0.00000  Uiso   1.00
C80    C     0.27788   0.64376   0.74315   0.00000  Uiso   1.00
C81    C     0.25787   0.64412   0.72413   0.00000  Uiso   1.00
C82    C     0.25728   0.66400   0.70522   0.00000  Uiso   1.00
C83    C     0.29702   0.74266   0.66303   0.00000  Uiso   1.00
C84    C     0.27775   0.74238   0.64346   0.00000  Uiso   1.00
C85    C     0.25774   0.72336   0.64407   0.00000  Uiso   1.00
C86    C     0.25725   0.70462   0.66412   0.00000  Uiso   1.00
C87    C     0.33714   0.74373   0.70465   0.00000  Uiso   1.00
C88    C     0.35710   0.74332   0.72352   0.00000  Uiso   1.00
C89    C     0.35748   0.72352   0.74275   0.00000  Uiso   1.00
C90    C     0.33782   0.70436   0.74310   0.00000  Uiso   1.00
H25    H     0.31166   0.66142   0.75855   0.00000  Uiso   1.00
O25    O     0.27866   0.62337   0.76174   0.00000  Uiso   1.00
O26    O     0.23885   0.62411   0.72398   0.00000  Uiso   1.00
H26    H     0.24121   0.66259   0.69141   0.00000  Uiso   1.00
H27    H     0.31183   0.75771   0.66069   0.00000  Uiso   1.00
O27    O     0.27847   0.76072   0.62284   0.00000  Uiso   1.00
O28    O     0.23867   0.72297   0.62410   0.00000  Uiso   1.00
H28    H     0.24128   0.69068   0.66280   0.00000  Uiso   1.00
H29    H     0.33824   0.75988   0.69089   0.00000  Uiso   1.00
O29    O     0.37709   0.76237   0.72320   0.00000  Uiso   1.00
O30    O     0.37785   0.72298   0.76137   0.00000  Uiso   1.00
H30    H     0.33966   0.69011   0.75873   0.00000  Uiso   1.00
C91    C     0.27697   0.29702   0.68437   0.00000  Uiso   1.00
C92    C     0.29711   0.27718   0.68424   0.00000  Uiso   1.00
C93    C     0.31675   0.27688   0.70450   0.00000  Uiso   1.00
C94    C     0.31707   0.29718   0.72417   0.00000  Uiso   1.00
C95    C     0.29696   0.31699   0.72432   0.00000  Uiso   1.00
C96    C     0.27722   0.31723   0.70408   0.00000  Uiso   1.00
C97    C     0.33814   0.29737   0.74284   0.00000  Uiso   1.00
C98    C     0.35757   0.27796   0.74281   0.00000  Uiso   1.00
C99    C     0.35655   0.25745   0.72435   0.00000  Uiso   1.00
C100   C     0.33639   0.25676   0.70571   0.00000  Uiso   1.00
C101   C     0.25709   0.29603   0.66446   0.00000  Uiso   1.00
C102   C     0.25778   0.27734   0.64435   0.00000  Uiso   1.00
C103   C     0.27811   0.25866   0.64359   0.00000  Uiso   1.00
C104   C     0.29734   0.25849   0.66319   0.00000  Uiso   1.00
C105   C     0.25857   0.33831   0.70384   0.00000  Uiso   1.00
C106   C     0.25872   0.35787   0.72311   0.00000  Uiso   1.00
C107   C     0.27732   0.35701   0.74351   0.00000  Uiso   1.00
C108   C     0.29595   0.33684   0.74425   0.00000  Uiso   1.00
H31    H     0.34073   0.31260   0.75743   0.00000  Uiso   1.00
O31    O     0.37836   0.27894   0.76095   0.00000  Uiso   1.00
O32    O     0.37625   0.23810   0.72436   0.00000  Uiso   1.00
H32    H     0.33688   0.24006   0.69259   0.00000  Uiso   1.00
H33    H     0.24057   0.30938   0.66372   0.00000  Uiso   1.00
O33    O     0.23859   0.27741   0.62450   0.00000  Uiso   1.00
O34    O     0.27907   0.24040   0.62291   0.00000  Uiso   1.00
H34    H     0.31248   0.24378   0.66076   0.00000  Uiso   1.00
H35    H     0.24388   0.34079   0.68869   0.00000  Uiso   1.00
O35    O     0.24052   0.37861   0.72213   0.00000  Uiso   1.00
O36    O     0.27738   0.37683   0.76274   0.00000  Uiso   1.00
H36    H     0.30920   0.33747   0.76085   0.00000  Uiso   1.00
C109   C     0.72417   0.31702   0.70432   0.00000  Uiso   1.00
C110   C     0.70440   0.31678   0.72453   0.00000  Uiso   1.00
C111   C     0.68425   0.29699   0.72434   0.00000  Uiso   1.00
C112   C     0.68365   0.27761   0.70374   0.00000  Uiso   1.00
C113   C     0.70362   0.27766   0.68375   0.00000  Uiso   1.00
C114   C     0.72415   0.29709   0.68433   0.00000  Uiso   1.00
C115   C     0.66277   0.25870   0.70376   0.00000  Uiso   1.00
C116   C     0.64323   0.25884   0.72306   0.00000  Uiso   1.00
C117   C     0.64397   0.27759   0.74330   0.00000  Uiso   1.00
C118   C     0.66414   0.29620   0.74403   0.00000  Uiso   1.00
C119   C     0.74316   0.33781   0.70441   0.00000  Uiso   1.00
C120   C     0.74305   0.35733   0.72370   0.00000  Uiso   1.00
C121   C     0.72404   0.35683   0.74372   0.00000  Uiso   1.00
C122   C     0.70514   0.33693   0.74419   0.00000  Uiso   1.00
C123   C     0.74415   0.29606   0.66454   0.00000  Uiso   1.00
C124   C     0.74342   0.27755   0.64430   0.00000  Uiso   1.00
C125   C     0.72303   0.25896   0.64334   0.00000  Uiso   1.00
C126   C     0.70366   0.25881   0.66282   0.00000  Uiso   1.00
H37    H     0.66062   0.24353   0.68906   0.00000  Uiso   1.00
O37    O     0.62258   0.24052   0.72223   0.00000  Uiso   1.00
O38    O     0.62410   0.27777   0.76248   0.00000  Uiso   1.00
H38    H     0.66306   0.30979   0.76032   0.00000  Uiso   1.00
H39    H     0.75810   0.34015   0.68950   0.00000  Uiso   1.00
O39    O     0.76147   0.37787   0.72292   0.00000  Uiso   1.00
O40    O     0.72374   0.37684   0.76273   0.00000  Uiso   1.00
H40    H     0.69117   0.33838   0.76012   0.00000  Uiso   1.00
H41    H     0.76080   0.30924   0.66397   0.00000  Uiso   1.00
O41    O     0.76272   0.27766   0.62455   0.00000  Uiso   1.00
O42    O     0.72215   0.24076   0.62260   0.00000  Uiso   1.00
H42    H     0.68890   0.24371   0.66054   0.00000  Uiso   1.00
C127   C     0.72438   0.70449   0.68468   0.00000  Uiso   1.00
C128   C     0.70409   0.72419   0.68423   0.00000  Uiso   1.00
C129   C     0.68401   0.72423   0.70408   0.00000  Uiso   1.00
C130   C     0.68406   0.70445   0.72428   0.00000  Uiso   1.00
C131   C     0.70383   0.68429   0.72424   0.00000  Uiso   1.00
C132   C     0.72425   0.68456   0.70467   0.00000  Uiso   1.00
C133   C     0.66396   0.70538   0.74397   0.00000  Uiso   1.00
C134   C     0.64397   0.72419   0.74324   0.00000  Uiso   1.00
C135   C     0.64367   0.74322   0.72324   0.00000  Uiso   1.00
C136   C     0.66344   0.74345   0.70423   0.00000  Uiso   1.00
C137   C     0.74401   0.70505   0.66449   0.00000  Uiso   1.00
C138   C     0.74347   0.72374   0.64440   0.00000  Uiso   1.00
C139   C     0.72356   0.74286   0.64388   0.00000  Uiso   1.00
C140   C     0.70439   0.74324   0.66351   0.00000  Uiso   1.00
C141   C     0.74377   0.66428   0.70544   0.00000  Uiso   1.00
C142   C     0.74288   0.64414   0.72405   0.00000  Uiso   1.00
C143   C     0.72262   0.64355   0.74280   0.00000  Uiso   1.00
C144   C     0.70352   0.66327   0.74296   0.00000  Uiso   1.00
H43    H     0.66290   0.69188   0.76034   0.00000  Uiso   1.00
O43    O     0.62388   0.72401   0.76217   0.00000  Uiso   1.00
O44    O     0.62325   0.76177   0.72237   0.00000  Uiso   1.00
H44    H     0.66167   0.75896   0.68984   0.00000  Uiso   1.00
H45    H     0.75999   0.69113   0.66320   0.00000  Uiso   1.00
O45    O     0.76245   0.72329   0.62436   0.00000  Uiso   1.00
O46    O     0.72284   0.76124   0.62331   0.00000  Uiso   1.00
H46    H     0.68995   0.75867   0.66145   0.00000  Uiso   1.00
H47    H     0.75996   0.66298   0.69176   0.00000  Uiso   1.00
O47    O     0.76183   0.62405   0.72381   0.00000  Uiso   1.00
O48    O     0.72152   0.62283   0.76101   0.00000  Uiso   1.00
H48    H     0.68845   0.66094   0.75776   0.00000  Uiso   1.00
C145   C     0.20840   0.20813   0.52901   0.00000  Uiso   1.00
C146   C     0.22539   0.22574   0.51485   0.00000  Uiso   1.00
C147   C     0.22561   0.22549   0.48661   0.00000  Uiso   1.00
C148   C     0.20800   0.20847   0.47248   0.00000  Uiso   1.00
C149   C     0.19077   0.19112   0.48662   0.00000  Uiso   1.00
C150   C     0.19084   0.19110   0.51491   0.00000  Uiso   1.00
C151   C     0.20816   0.20945   0.44432   0.00000  Uiso   1.00
C152   C     0.22534   0.22589   0.43058   0.00000  Uiso   1.00
C153   C     0.24304   0.24197   0.44440   0.00000  Uiso   1.00
C154   C     0.24326   0.24171   0.47185   0.00000  Uiso   1.00
C155   C     0.20965   0.20808   0.55716   0.00000  Uiso   1.00
C156   C     0.22613   0.22524   0.57088   0.00000  Uiso   1.00
C157   C     0.24202   0.24308   0.55704   0.00000  Uiso   1.00
C158   C     0.24164   0.24338   0.52959   0.00000  Uiso   1.00
C159   C     0.17294   0.17400   0.52832   0.00000  Uiso   1.00
C160   C     0.15619   0.15709   0.51464   0.00000  Uiso   1.00
C161   C     0.15647   0.15676   0.48703   0.00000  Uiso   1.00
C162   C     0.17340   0.17343   0.47328   0.00000  Uiso   1.00
H49    H     0.19519   0.19792   0.43207   0.00000  Uiso   1.00
O49    O     0.22518   0.22639   0.40296   0.00000  Uiso   1.00
O50    O     0.26037   0.25829   0.43043   0.00000  Uiso   1.00
H50    H     0.25786   0.25432   0.48077   0.00000  Uiso   1.00
H51    H     0.19833   0.19492   0.56940   0.00000  Uiso   1.00
O51    O     0.22685   0.22494   0.59849   0.00000  Uiso   1.00
O52    O     0.25830   0.26048   0.57097   0.00000  Uiso   1.00
H52    H     0.25419   0.25802   0.52066   0.00000  Uiso   1.00
H53    H     0.17106   0.17318   0.54946   0.00000  Uiso   1.00
O53    O     0.13908   0.14028   0.52830   0.00000  Uiso   1.00
O54    O     0.13959   0.13965   0.47345   0.00000  Uiso   1.00
H54    H     0.17238   0.17165   0.45213   0.00000  Uiso   1.00
C163   C     0.77584   0.22595   0.51475   0.00000  Uiso   1.00
C164   C     0.79272   0.20828   0.52895   0.00000  Uiso   1.00
C165   C     0.81010   0.19103   0.51489   0.00000  Uiso   1.00
C166   C     0.81025   0.19111   0.48660   0.00000  Uiso   1.00
C167   C     0.79304   0.20843   0.47243   0.00000  Uiso   1.00
C168   C     0.77542   0.22544   0.48652   0.00000  Uiso   1.00
C169   C     0.82763   0.17345   0.47326   0.00000  Uiso   1.00
C170   C     0.84438   0.15664   0.48700   0.00000  Uiso   1.00
C171   C     0.84448   0.15676   0.51461   0.00000  Uiso   1.00
C172   C     0.82775   0.17367   0.52831   0.00000  Uiso   1.00
C173   C     0.75991   0.24393   0.52941   0.00000  Uiso   1.00
C174   C     0.75945   0.24366   0.55686   0.00000  Uiso   1.00
C175   C     0.77518   0.22570   0.57075   0.00000  Uiso   1.00
C176   C     0.79160   0.20844   0.55709   0.00000  Uiso   1.00
C177   C     0.75751   0.24135   0.47175   0.00000  Uiso   1.00
C178   C     0.75776   0.24159   0.44430   0.00000  Uiso   1.00
C179   C     0.77562   0.22567   0.43051   0.00000  Uiso   1.00
C180   C     0.79284   0.20931   0.44427   0.00000  Uiso   1.00
H55    H     0.82884   0.17182   0.45212   0.00000  Uiso   1.00
O55    O     0.86123   0.13958   0.47336   0.00000  Uiso   1.00
O56    O     0.86147   0.13980   0.52823   0.00000  Uiso   1.00
H56    H     0.82941   0.17263   0.54946   0.00000  Uiso   1.00
H57    H     0.74775   0.25883   0.52037   0.00000  Uiso   1.00
O57    O     0.74324   0.26113   0.57077   0.00000  Uiso   1.00
O58    O     0.77440   0.22538   0.59835   0.00000  Uiso   1.00
H58    H     0.80296   0.19538   0.56940   0.00000  Uiso   1.00
H59    H     0.74267   0.25364   0.48071   0.00000  Uiso   1.00
O59    O     0.74033   0.25776   0.43029   0.00000  Uiso   1.00
O60    O     0.77589   0.22621   0.40290   0.00000  Uiso   1.00
H60    H     0.80578   0.19777   0.43202   0.00000  Uiso   1.00
C181   C     0.77543   0.77554   0.48670   0.00000  Uiso   1.00
C182   C     0.79299   0.79259   0.47255   0.00000  Uiso   1.00
C183   C     0.81006   0.81012   0.48666   0.00000  Uiso   1.00
C184   C     0.81000   0.81020   0.51494   0.00000  Uiso   1.00
C185   C     0.79272   0.79292   0.52908   0.00000  Uiso   1.00
C186   C     0.77562   0.77538   0.51494   0.00000  Uiso   1.00
C187   C     0.82754   0.82771   0.52831   0.00000  Uiso   1.00
C188   C     0.84423   0.84461   0.51460   0.00000  Uiso   1.00
C189   C     0.84407   0.84477   0.48700   0.00000  Uiso   1.00
C190   C     0.82726   0.82795   0.47327   0.00000  Uiso   1.00
C191   C     0.75794   0.75913   0.47195   0.00000  Uiso   1.00
C192   C     0.75817   0.75885   0.44449   0.00000  Uiso   1.00
C193   C     0.77583   0.77496   0.43067   0.00000  Uiso   1.00
C194   C     0.79293   0.79149   0.44440   0.00000  Uiso   1.00
C195   C     0.75924   0.75789   0.52971   0.00000  Uiso   1.00
C196   C     0.75908   0.75806   0.55716   0.00000  Uiso   1.00
C197   C     0.77540   0.77553   0.57097   0.00000  Uiso   1.00
C198   C     0.79192   0.79260   0.55723   0.00000  Uiso   1.00
H61    H     0.82913   0.82894   0.54945   0.00000  Uiso   1.00
O61    O     0.86123   0.86156   0.52824   0.00000  Uiso   1.00
O62    O     0.86093   0.86186   0.47338   0.00000  Uiso   1.00
H62    H     0.82826   0.82971   0.45213   0.00000  Uiso   1.00
H63    H     0.74350   0.74634   0.48085   0.00000  Uiso   1.00
O63    O     0.74088   0.74248   0.43053   0.00000  Uiso   1.00
O64    O     0.77604   0.77441   0.40306   0.00000  Uiso   1.00
H64    H     0.80591   0.80299   0.43214   0.00000  Uiso   1.00
H65    H     0.74636   0.74352   0.52083   0.00000  Uiso   1.00
O65    O     0.74262   0.74088   0.57113   0.00000  Uiso   1.00
O66    O     0.77505   0.77560   0.59858   0.00000  Uiso   1.00
H66    H     0.80369   0.80532   0.56951   0.00000  Uiso   1.00
C199   C     0.20817   0.79287   0.52896   0.00000  Uiso   1.00
C200   C     0.22530   0.77544   0.51473   0.00000  Uiso   1.00
C201   C     0.22565   0.77592   0.48650   0.00000  Uiso   1.00
C202   C     0.20810   0.79302   0.47242   0.00000  Uiso   1.00
C203   C     0.19092   0.81035   0.48661   0.00000  Uiso   1.00
C204   C     0.19083   0.81017   0.51490   0.00000  Uiso   1.00
C205   C     0.20825   0.79212   0.44426   0.00000  Uiso   1.00
C206   C     0.22535   0.77564   0.43048   0.00000  Uiso   1.00
C207   C     0.24306   0.75955   0.44425   0.00000  Uiso   1.00
C208   C     0.24332   0.75977   0.47170   0.00000  Uiso   1.00
C209   C     0.20904   0.79244   0.55711   0.00000  Uiso   1.00
C210   C     0.22556   0.77527   0.57075   0.00000  Uiso   1.00
C211   C     0.24175   0.75776   0.55684   0.00000  Uiso   1.00
C212   C     0.24154   0.75772   0.52939   0.00000  Uiso   1.00
C213   C     0.17304   0.82740   0.52832   0.00000  Uiso   1.00
C214   C     0.15635   0.84437   0.51462   0.00000  Uiso   1.00
C215   C     0.15672   0.84477   0.48702   0.00000  Uiso   1.00
C216   C     0.17372   0.82821   0.47328   0.00000  Uiso   1.00
H67    H     0.19529   0.80368   0.43203   0.00000  Uiso   1.00
O67    O     0.22507   0.77508   0.40286   0.00000  Uiso   1.00
O68    O     0.26032   0.74318   0.43026   0.00000  Uiso   1.00
H68    H     0.25792   0.74713   0.48057   0.00000  Uiso   1.00
H69    H     0.19736   0.80520   0.56944   0.00000  Uiso   1.00
O69    O     0.22608   0.77530   0.59836   0.00000  Uiso   1.00
O70    O     0.25820   0.74046   0.57071   0.00000  Uiso   1.00
H70    H     0.25423   0.74325   0.52040   0.00000  Uiso   1.00
H71    H     0.17124   0.82829   0.54946   0.00000  Uiso   1.00
O71    O     0.13917   0.86115   0.52824   0.00000  Uiso   1.00
O72    O     0.13989   0.86188   0.47339   0.00000  Uiso   1.00
H72    H     0.17288   0.83019   0.45215   0.00000  Uiso   1.00
C217   C     0.51477   0.22586   0.22550   0.00000  Uiso   1.00
C218   C     0.52889   0.20822   0.20851   0.00000  Uiso   1.00
C219   C     0.51475   0.19102   0.19115   0.00000  Uiso   1.00
C220   C     0.48646   0.19121   0.19097   0.00000  Uiso   1.00
C221   C     0.47235   0.20874   0.20805   0.00000  Uiso   1.00
C222   C     0.48652   0.22581   0.22559   0.00000  Uiso   1.00
C223   C     0.47308   0.17351   0.17362   0.00000  Uiso   1.00
C224   C     0.48681   0.15664   0.15686   0.00000  Uiso   1.00
C225   C     0.51442   0.15670   0.15684   0.00000  Uiso   1.00
C226   C     0.52813   0.17352   0.17362   0.00000  Uiso   1.00
C227   C     0.52956   0.24332   0.24191   0.00000  Uiso   1.00
C228   C     0.55701   0.24308   0.24214   0.00000  Uiso   1.00
C229   C     0.57081   0.22547   0.22596   0.00000  Uiso   1.00
C230   C     0.55705   0.20837   0.20947   0.00000  Uiso   1.00
C231   C     0.47179   0.24234   0.24297   0.00000  Uiso   1.00
C232   C     0.44434   0.24269   0.24272   0.00000  Uiso   1.00
C233   C     0.43048   0.22648   0.22518   0.00000  Uiso   1.00
C234   C     0.44419   0.20984   0.20816   0.00000  Uiso   1.00
H73    H     0.45192   0.17194   0.17244   0.00000  Uiso   1.00
O73    O     0.47322   0.13960   0.13992   0.00000  Uiso   1.00
O74    O     0.52808   0.13973   0.13989   0.00000  Uiso   1.00
H74    H     0.54927   0.17225   0.17208   0.00000  Uiso   1.00
H75    H     0.52070   0.25775   0.25473   0.00000  Uiso   1.00
O75    O     0.57100   0.26033   0.25853   0.00000  Uiso   1.00
O76    O     0.59842   0.22530   0.22641   0.00000  Uiso   1.00
H76    H     0.56932   0.19552   0.19785   0.00000  Uiso   1.00
H77    H     0.48070   0.25519   0.25735   0.00000  Uiso   1.00
O77    O     0.43043   0.25919   0.25992   0.00000  Uiso   1.00
O78    O     0.40285   0.22704   0.22505   0.00000  Uiso   1.00
H78    H     0.43191   0.19820   0.19531   0.00000  Uiso   1.00
C235   C     0.77563   0.48660   0.22591   0.00000  Uiso   1.00
C236   C     0.79315   0.47239   0.20887   0.00000  Uiso   1.00
C237   C     0.81027   0.48645   0.19135   0.00000  Uiso   1.00
C238   C     0.81022   0.51474   0.19119   0.00000  Uiso   1.00
C239   C     0.79286   0.52893   0.20836   0.00000  Uiso   1.00
C240   C     0.77580   0.51484   0.22597   0.00000  Uiso   1.00
C241   C     0.82784   0.52805   0.17372   0.00000  Uiso   1.00
C242   C     0.84448   0.51426   0.15680   0.00000  Uiso   1.00
C243   C     0.84429   0.48666   0.15674   0.00000  Uiso   1.00
C244   C     0.82752   0.47301   0.17363   0.00000  Uiso   1.00
C245   C     0.75817   0.47190   0.24240   0.00000  Uiso   1.00
C246   C     0.75838   0.44445   0.24275   0.00000  Uiso   1.00
C247   C     0.77591   0.43057   0.22656   0.00000  Uiso   1.00
C248   C     0.79297   0.44424   0.20995   0.00000  Uiso   1.00
C249   C     0.75940   0.52966   0.24340   0.00000  Uiso   1.00
C250   C     0.75915   0.55711   0.24309   0.00000  Uiso   1.00
C251   C     0.77536   0.57087   0.22548   0.00000  Uiso   1.00
C252   C     0.79192   0.55708   0.20847   0.00000  Uiso   1.00
H79    H     0.82953   0.54919   0.17254   0.00000  Uiso   1.00
O79    O     0.86143   0.52782   0.13975   0.00000  Uiso   1.00
O80    O     0.86109   0.47296   0.13966   0.00000  Uiso   1.00
H80    H     0.82860   0.45186   0.17201   0.00000  Uiso   1.00
H81    H     0.74378   0.48084   0.25522   0.00000  Uiso   1.00
O81    O     0.74116   0.43055   0.25924   0.00000  Uiso   1.00
O82    O     0.77601   0.40296   0.22710   0.00000  Uiso   1.00
H82    H     0.80581   0.43193   0.19835   0.00000  Uiso   1.00
H83    H     0.74656   0.52083   0.25783   0.00000  Uiso   1.00
O83    O     0.74273   0.57112   0.26028   0.00000  Uiso   1.00
O84    O     0.77486   0.59849   0.22523   0.00000  Uiso   1.00
H84    H     0.80359   0.56932   0.19562   0.00000  Uiso   1.00
C253   C     0.47222   0.79314   0.20862   0.00000  Uiso   1.00
C254   C     0.48635   0.77593   0.22605   0.00000  Uiso   1.00
C255   C     0.51459   0.77562   0.22578   0.00000  Uiso   1.00
C256   C     0.52877   0.79316   0.20874   0.00000  Uiso   1.00
C257   C     0.51466   0.81045   0.19142   0.00000  Uiso   1.00
C258   C     0.48637   0.81050   0.19144   0.00000  Uiso   1.00
C259   C     0.55693   0.79283   0.20962   0.00000  Uiso   1.00
C260   C     0.57063   0.77567   0.22612   0.00000  Uiso   1.00
C261   C     0.55677   0.75809   0.24227   0.00000  Uiso   1.00
C262   C     0.52931   0.75797   0.24205   0.00000  Uiso   1.00
C263   C     0.44407   0.79231   0.20890   0.00000  Uiso   1.00
C264   C     0.43031   0.77567   0.22585   0.00000  Uiso   1.00
C265   C     0.44411   0.75931   0.24329   0.00000  Uiso   1.00
C266   C     0.47157   0.75952   0.24351   0.00000  Uiso   1.00
C267   C     0.47301   0.82823   0.17412   0.00000  Uiso   1.00
C268   C     0.48674   0.84488   0.15717   0.00000  Uiso   1.00
C269   C     0.51435   0.84463   0.15695   0.00000  Uiso   1.00
C270   C     0.52806   0.82777   0.17373   0.00000  Uiso   1.00
H85    H     0.56923   0.80563   0.19796   0.00000  Uiso   1.00
O85    O     0.59825   0.77579   0.22664   0.00000  Uiso   1.00
O86    O     0.57069   0.74079   0.25866   0.00000  Uiso   1.00
H86    H     0.52038   0.74352   0.25480   0.00000  Uiso   1.00
H87    H     0.43179   0.80412   0.19620   0.00000  Uiso   1.00
O87    O     0.40270   0.77522   0.22567   0.00000  Uiso   1.00
O88    O     0.43013   0.74275   0.26037   0.00000  Uiso   1.00
H88    H     0.48044   0.74664   0.25788   0.00000  Uiso   1.00
H89    H     0.45187   0.82999   0.17305   0.00000  Uiso   1.00
O89    O     0.47311   0.86188   0.14024   0.00000  Uiso   1.00
O90    O     0.52797   0.86144   0.13982   0.00000  Uiso   1.00
H90    H     0.54920   0.82884   0.17204   0.00000  Uiso   1.00
C271   C     0.20807   0.52898   0.20850   0.00000  Uiso   1.00
C272   C     0.22519   0.51475   0.22593   0.00000  Uiso   1.00
C273   C     0.22520   0.48650   0.22577   0.00000  Uiso   1.00
C274   C     0.20766   0.47243   0.20861   0.00000  Uiso   1.00
C275   C     0.19054   0.48665   0.19121   0.00000  Uiso   1.00
C276   C     0.19061   0.51494   0.19129   0.00000  Uiso   1.00
C277   C     0.20780   0.44427   0.20949   0.00000  Uiso   1.00
C278   C     0.22477   0.43045   0.22609   0.00000  Uiso   1.00
C279   C     0.24222   0.44420   0.24248   0.00000  Uiso   1.00
C280   C     0.24247   0.47165   0.24233   0.00000  Uiso   1.00
C281   C     0.20908   0.55714   0.20879   0.00000  Uiso   1.00
C282   C     0.22579   0.57079   0.22579   0.00000  Uiso   1.00
C283   C     0.24215   0.55688   0.24313   0.00000  Uiso   1.00
C284   C     0.24185   0.52943   0.24325   0.00000  Uiso   1.00
C285   C     0.17291   0.52840   0.17401   0.00000  Uiso   1.00
C286   C     0.15619   0.51476   0.15703   0.00000  Uiso   1.00
C287   C     0.15638   0.48716   0.15671   0.00000  Uiso   1.00
C288   C     0.17324   0.47336   0.17341   0.00000  Uiso   1.00
H91    H     0.19498   0.43205   0.19775   0.00000  Uiso   1.00
O91    O     0.22462   0.40282   0.22647   0.00000  Uiso   1.00
O92    O     0.25932   0.43019   0.25899   0.00000  Uiso   1.00
H92    H     0.25670   0.48045   0.25541   0.00000  Uiso   1.00
H93    H     0.19736   0.56948   0.19608   0.00000  Uiso   1.00
O93    O     0.22632   0.59841   0.22575   0.00000  Uiso   1.00
O94    O     0.25879   0.57074   0.26025   0.00000  Uiso   1.00
H94    H     0.25492   0.52049   0.25740   0.00000  Uiso   1.00
H95    H     0.17121   0.54955   0.17304   0.00000  Uiso   1.00
O95    O     0.13917   0.52846   0.14015   0.00000  Uiso   1.00
O96    O     0.13952   0.47361   0.13956   0.00000  Uiso   1.00
H96    H     0.17217   0.45223   0.17160   0.00000  Uiso   1.00
C289   C     0.47228   0.79305   0.79293   0.00000  Uiso   1.00
C290   C     0.48642   0.77590   0.77544   0.00000  Uiso   1.00
C291   C     0.51467   0.77586   0.77546   0.00000  Uiso   1.00
C292   C     0.52882   0.79334   0.79260   0.00000  Uiso   1.00
C293   C     0.51472   0.81036   0.81016   0.00000  Uiso   1.00
C294   C     0.48643   0.81037   0.81018   0.00000  Uiso   1.00
C295   C     0.55697   0.79329   0.79152   0.00000  Uiso   1.00
C296   C     0.57070   0.77633   0.77487   0.00000  Uiso   1.00
C297   C     0.55689   0.75889   0.75853   0.00000  Uiso   1.00
C298   C     0.52944   0.75866   0.75877   0.00000  Uiso   1.00
C299   C     0.44412   0.79223   0.79262   0.00000  Uiso   1.00
C300   C     0.43036   0.77561   0.77562   0.00000  Uiso   1.00
C301   C     0.44418   0.75912   0.75832   0.00000  Uiso   1.00
C302   C     0.47163   0.75925   0.75821   0.00000  Uiso   1.00
C303   C     0.47309   0.82800   0.82762   0.00000  Uiso   1.00
C304   C     0.48685   0.84463   0.84459   0.00000  Uiso   1.00
C305   C     0.51446   0.84434   0.84482   0.00000  Uiso   1.00
C306   C     0.52813   0.82748   0.82805   0.00000  Uiso   1.00
H97    H     0.56924   0.80617   0.80313   0.00000  Uiso   1.00
O97    O     0.59832   0.77648   0.77443   0.00000  Uiso   1.00
O98    O     0.57085   0.74178   0.74199   0.00000  Uiso   1.00
H98    H     0.52057   0.74452   0.74564   0.00000  Uiso   1.00
H99    H     0.43185   0.80407   0.80528   0.00000  Uiso   1.00
O99    O     0.40274   0.77528   0.77562   0.00000  Uiso   1.00
O100   O     0.43022   0.74254   0.74124   0.00000  Uiso   1.00
H100   H     0.48049   0.74605   0.74411   0.00000  Uiso   1.00
H101   H     0.45195   0.82969   0.82875   0.00000  Uiso   1.00
O101   O     0.47327   0.86167   0.86153   0.00000  Uiso   1.00
O102   O     0.52813   0.86112   0.86195   0.00000  Uiso   1.00
H102   H     0.54927   0.82839   0.82989   0.00000  Uiso   1.00
C307   C     0.20844   0.52892   0.79335   0.00000  Uiso   1.00
C308   C     0.22565   0.51481   0.77591   0.00000  Uiso   1.00
C309   C     0.22584   0.48658   0.77602   0.00000  Uiso   1.00
C310   C     0.20808   0.47239   0.79283   0.00000  Uiso   1.00
C311   C     0.19087   0.48647   0.81023   0.00000  Uiso   1.00
C312   C     0.19091   0.51475   0.81036   0.00000  Uiso   1.00
C313   C     0.20806   0.44424   0.79157   0.00000  Uiso   1.00
C314   C     0.22530   0.43055   0.77514   0.00000  Uiso   1.00
C315   C     0.24322   0.44441   0.75937   0.00000  Uiso   1.00
C316   C     0.24355   0.47186   0.75982   0.00000  Uiso   1.00
C317   C     0.20941   0.55708   0.79323   0.00000  Uiso   1.00
C318   C     0.22605   0.57084   0.77628   0.00000  Uiso   1.00
C319   C     0.24236   0.55705   0.75879   0.00000  Uiso   1.00
C320   C     0.24212   0.52961   0.75852   0.00000  Uiso   1.00
C321   C     0.17308   0.52808   0.82760   0.00000  Uiso   1.00
C322   C     0.15627   0.51431   0.84437   0.00000  Uiso   1.00
C323   C     0.15655   0.48671   0.84456   0.00000  Uiso   1.00
C324   C     0.17355   0.47304   0.82790   0.00000  Uiso   1.00
H103   H     0.19488   0.43197   0.80282   0.00000  Uiso   1.00
O103   O     0.22496   0.40294   0.77435   0.00000  Uiso   1.00
O104   O     0.26066   0.43049   0.74312   0.00000  Uiso   1.00
H104   H     0.25824   0.48080   0.74735   0.00000  Uiso   1.00
H105   H     0.19768   0.56932   0.80602   0.00000  Uiso   1.00
O105   O     0.22648   0.59846   0.77643   0.00000  Uiso   1.00
O106   O     0.25886   0.57103   0.74165   0.00000  Uiso   1.00
H106   H     0.25496   0.52073   0.74410   0.00000  Uiso   1.00
H107   H     0.17134   0.54922   0.82869   0.00000  Uiso   1.00
O107   O     0.13911   0.52788   0.86120   0.00000  Uiso   1.00
O108   O     0.13966   0.47303   0.86157   0.00000  Uiso   1.00
H108   H     0.17265   0.45189   0.82970   0.00000  Uiso   1.00
C325   C     0.51453   0.22589   0.77601   0.00000  Uiso   1.00
C326   C     0.52875   0.20836   0.79303   0.00000  Uiso   1.00
C327   C     0.51468   0.19121   0.81051   0.00000  Uiso   1.00
C328   C     0.48638   0.19126   0.81064   0.00000  Uiso   1.00
C329   C     0.47221   0.20862   0.79348   0.00000  Uiso   1.00
C330   C     0.48630   0.22547   0.77569   0.00000  Uiso   1.00
C331   C     0.47304   0.17350   0.82793   0.00000  Uiso   1.00
C332   C     0.48680   0.15673   0.84475   0.00000  Uiso   1.00
C333   C     0.51441   0.15697   0.84492   0.00000  Uiso   1.00
C334   C     0.52810   0.17392   0.82822   0.00000  Uiso   1.00
C335   C     0.52919   0.24369   0.75987   0.00000  Uiso   1.00
C336   C     0.55665   0.24342   0.75940   0.00000  Uiso   1.00
C337   C     0.57055   0.22565   0.77532   0.00000  Uiso   1.00
C338   C     0.55690   0.20852   0.79190   0.00000  Uiso   1.00
C339   C     0.47152   0.24131   0.75773   0.00000  Uiso   1.00
C340   C     0.44406   0.24168   0.75810   0.00000  Uiso   1.00
C341   C     0.43029   0.22604   0.77622   0.00000  Uiso   1.00
C342   C     0.44406   0.20976   0.79351   0.00000  Uiso   1.00
H109   H     0.45190   0.17169   0.82893   0.00000  Uiso   1.00
O109   O     0.47320   0.13960   0.86157   0.00000  Uiso   1.00
O110   O     0.52806   0.14002   0.86190   0.00000  Uiso   1.00
H110   H     0.54925   0.17296   0.82994   0.00000  Uiso   1.00
H111   H     0.52016   0.25845   0.74754   0.00000  Uiso   1.00
O111   O     0.57053   0.26074   0.74300   0.00000  Uiso   1.00
O112   O     0.59817   0.22539   0.77457   0.00000  Uiso   1.00
H112   H     0.56921   0.19557   0.80338   0.00000  Uiso   1.00
H113   H     0.48045   0.25347   0.74277   0.00000  Uiso   1.00
O113   O     0.43005   0.25774   0.74056   0.00000  Uiso   1.00
O114   O     0.40268   0.22678   0.77665   0.00000  Uiso   1.00
H114   H     0.43185   0.19852   0.80677   0.00000  Uiso   1.00
C343   C     0.77527   0.48644   0.77575   0.00000  Uiso   1.00
C344   C     0.79284   0.47240   0.79289   0.00000  Uiso   1.00
C345   C     0.80994   0.48664   0.81027   0.00000  Uiso   1.00
C346   C     0.80968   0.51492   0.81038   0.00000  Uiso   1.00
C347   C     0.79219   0.52893   0.79319   0.00000  Uiso   1.00
C348   C     0.77530   0.51468   0.77555   0.00000  Uiso   1.00
C349   C     0.82728   0.52840   0.82773   0.00000  Uiso   1.00
C350   C     0.84415   0.51478   0.84456   0.00000  Uiso   1.00
C351   C     0.84419   0.48717   0.84466   0.00000  Uiso   1.00
C352   C     0.82743   0.47336   0.82789   0.00000  Uiso   1.00
C353   C     0.75788   0.47157   0.75934   0.00000  Uiso   1.00
C354   C     0.75820   0.44412   0.75917   0.00000  Uiso   1.00
C355   C     0.77575   0.43041   0.77549   0.00000  Uiso   1.00
C356   C     0.79271   0.44425   0.79205   0.00000  Uiso   1.00
C357   C     0.75891   0.52934   0.75797   0.00000  Uiso   1.00
C358   C     0.75843   0.55679   0.75824   0.00000  Uiso   1.00
C359   C     0.77441   0.57070   0.77596   0.00000  Uiso   1.00
C360   C     0.79098   0.55707   0.79308   0.00000  Uiso   1.00
H115   H     0.82882   0.54956   0.82886   0.00000  Uiso   1.00
O115   O     0.86114   0.52848   0.86146   0.00000  Uiso   1.00
O116   O     0.86119   0.47362   0.86165   0.00000  Uiso   1.00
H116   H     0.82878   0.45223   0.82948   0.00000  Uiso   1.00
H117   H     0.74345   0.48038   0.74647   0.00000  Uiso   1.00
O117   O     0.74107   0.43005   0.74273   0.00000  Uiso   1.00
O118   O     0.77600   0.40280   0.77510   0.00000  Uiso   1.00
H118   H     0.80548   0.43204   0.80383   0.00000  Uiso   1.00
H119   H     0.74628   0.52036   0.74343   0.00000  Uiso   1.00
O119   O     0.74201   0.57066   0.74094   0.00000  Uiso   1.00
O120   O     0.77369   0.59830   0.77620   0.00000  Uiso   1.00
H120   H     0.80243   0.56941   0.80603   0.00000  Uiso   1.00
C361   C     0.90720   0.94732   0.50050   0.00000  Uiso   1.00
C362   C     0.90009   0.92045   0.50069   0.00000  Uiso   1.00
C363   C     0.92001   0.90047   0.50057   0.00000  Uiso   1.00
C364   C     0.94692   0.90748   0.50034   0.00000  Uiso   1.00
C365   C     0.95312   0.93437   0.50004   0.00000  Uiso   1.00
C366   C     0.93412   0.95341   0.50011   0.00000  Uiso   1.00
C367   C     0.94716   0.97731   0.49994   0.00000  Uiso   1.00
N1     N     0.97388   0.97408   0.49979   0.00000  Uiso   1.00
C368   C     0.97702   0.94742   0.49983   0.00000  Uiso   1.00
N2     N     0.00037   0.93490   0.49985   0.00000  Uiso   1.00
C369   C     0.02369   0.94742   0.49985   0.00000  Uiso   1.00
N3     N     0.02689   0.97409   0.49988   0.00000  Uiso   1.00
C370   C     0.05358   0.97730   0.50009   0.00000  Uiso   1.00
C371   C     0.06662   0.95338   0.50019   0.00000  Uiso   1.00
C372   C     0.04760   0.93436   0.50000   0.00000  Uiso   1.00
N4     N     0.02690   0.02709   0.49979   0.00000  Uiso   1.00
C373   C     0.05358   0.02396   0.50000   0.00000  Uiso   1.00
N5     N     0.06609   0.00061   0.50017   0.00000  Uiso   1.00
C374   C     0.06663   0.04786   0.50015   0.00000  Uiso   1.00
C375   C     0.04758   0.06686   0.50000   0.00000  Uiso   1.00
C376   C     0.02369   0.05382   0.49979   0.00000  Uiso   1.00
C377   C     0.05374   0.90745   0.49998   0.00000  Uiso   1.00
C378   C     0.08064   0.90039   0.50030   0.00000  Uiso   1.00
C379   C     0.10058   0.92034   0.50062   0.00000  Uiso   1.00
C380   C     0.09353   0.94723   0.50045   0.00000  Uiso   1.00
C381   C     0.05368   0.09378   0.50023   0.00000  Uiso   1.00
C382   C     0.08056   0.10090   0.50052   0.00000  Uiso   1.00
C383   C     0.10054   0.08099   0.50078   0.00000  Uiso   1.00
C384   C     0.09353   0.05408   0.50062   0.00000  Uiso   1.00
N6     N     0.97388   0.02708   0.49985   0.00000  Uiso   1.00
C385   C     0.97705   0.05381   0.49988   0.00000  Uiso   1.00
N7     N     0.00038   0.06629   0.49985   0.00000  Uiso   1.00
C386   C     0.95316   0.06683   0.50003   0.00000  Uiso   1.00
C387   C     0.93413   0.04781   0.50009   0.00000  Uiso   1.00
C388   C     0.94718   0.02394   0.49998   0.00000  Uiso   1.00
C389   C     0.90723   0.05395   0.50025   0.00000  Uiso   1.00
C390   C     0.90017   0.08084   0.50047   0.00000  Uiso   1.00
C391   C     0.92013   0.10079   0.50039   0.00000  Uiso   1.00
C392   C     0.94702   0.09373   0.50012   0.00000  Uiso   1.00
N8     N     0.93469   0.00059   0.50004   0.00000  Uiso   1.00
H121   H     0.89230   0.96269   0.50070   0.00000  Uiso   1.00
O121   O     0.87353   0.91306   0.50099   0.00000  Uiso   1.00
O122   O     0.91251   0.87393   0.50068   0.00000  Uiso   1.00
H122   H     0.96224   0.89252   0.50046   0.00000  Uiso   1.00
H123   H     0.03840   0.89253   0.49966   0.00000  Uiso   1.00
O123   O     0.08809   0.87384   0.50025   0.00000  Uiso   1.00
O124   O     0.12714   0.91290   0.50106   0.00000  Uiso   1.00
H124   H     0.10846   0.96257   0.50049   0.00000  Uiso   1.00
H125   H     0.03831   0.10868   0.50025   0.00000  Uiso   1.00
O125   O     0.08795   0.12747   0.50057   0.00000  Uiso   1.00
O126   O     0.12708   0.08850   0.50121   0.00000  Uiso   1.00
H126   H     0.10848   0.03876   0.50091   0.00000  Uiso   1.00
H127   H     0.89230   0.03861   0.50015   0.00000  Uiso   1.00
O127   O     0.87362   0.08829   0.50074   0.00000  Uiso   1.00
O128   O     0.91270   0.12733   0.50051   0.00000  Uiso   1.00
H128   H     0.96236   0.10866   0.49994   0.00000  Uiso   1.00
Ni1    Ni    0.00038   0.00062   0.49981   0.00000  Uiso   1.00
C393   C     0.50062   0.09372   0.94741   0.00000  Uiso   1.00
C394   C     0.50058   0.10079   0.92052   0.00000  Uiso   1.00
C395   C     0.50068   0.08086   0.90056   0.00000  Uiso   1.00
C396   C     0.50069   0.05396   0.90760   0.00000  Uiso   1.00
C397   C     0.50072   0.04779   0.93451   0.00000  Uiso   1.00
C398   C     0.50071   0.06681   0.95354   0.00000  Uiso   1.00
C399   C     0.50082   0.05377   0.97745   0.00000  Uiso   1.00
N9     N     0.50087   0.02706   0.97424   0.00000  Uiso   1.00
C400   C     0.50080   0.02389   0.94757   0.00000  Uiso   1.00
N10    N     0.50087   0.00055   0.93506   0.00000  Uiso   1.00
C401   C     0.50092   0.97723   0.94758   0.00000  Uiso   1.00
N11    N     0.50084   0.97406   0.97426   0.00000  Uiso   1.00
C402   C     0.50080   0.94737   0.97747   0.00000  Uiso   1.00
C403   C     0.50083   0.93432   0.95357   0.00000  Uiso   1.00
C404   C     0.50092   0.95333   0.93454   0.00000  Uiso   1.00
N12    N     0.50083   0.97407   0.02726   0.00000  Uiso   1.00
C405   C     0.50066   0.94739   0.02412   0.00000  Uiso   1.00
N13    N     0.50067   0.93488   0.00078   0.00000  Uiso   1.00
C406   C     0.50058   0.93434   0.04801   0.00000  Uiso   1.00
C407   C     0.50071   0.95338   0.06702   0.00000  Uiso   1.00
C408   C     0.50084   0.97727   0.05398   0.00000  Uiso   1.00
C409   C     0.50100   0.94716   0.90764   0.00000  Uiso   1.00
C410   C     0.50094   0.92026   0.90060   0.00000  Uiso   1.00
C411   C     0.50075   0.90032   0.92056   0.00000  Uiso   1.00
C412   C     0.50074   0.90740   0.94744   0.00000  Uiso   1.00
C413   C     0.50072   0.94727   0.09393   0.00000  Uiso   1.00
C414   C     0.50063   0.92039   0.10102   0.00000  Uiso   1.00
C415   C     0.50042   0.90042   0.08110   0.00000  Uiso   1.00
C416   C     0.50041   0.90744   0.05419   0.00000  Uiso   1.00
N14    N     0.50106   0.02708   0.02725   0.00000  Uiso   1.00
C417   C     0.50112   0.02391   0.05397   0.00000  Uiso   1.00
N15    N     0.50099   0.00059   0.06645   0.00000  Uiso   1.00
C418   C     0.50117   0.04780   0.06700   0.00000  Uiso   1.00
C419   C     0.50118   0.06683   0.04798   0.00000  Uiso   1.00
C420   C     0.50112   0.05377   0.02410   0.00000  Uiso   1.00
C421   C     0.50112   0.09373   0.05414   0.00000  Uiso   1.00
C422   C     0.50099   0.10079   0.08104   0.00000  Uiso   1.00
C423   C     0.50099   0.08083   0.10098   0.00000  Uiso   1.00
C424   C     0.50110   0.05395   0.09391   0.00000  Uiso   1.00
N16    N     0.50096   0.06626   0.00075   0.00000  Uiso   1.00
H129   H     0.50058   0.10863   0.96276   0.00000  Uiso   1.00
O129   O     0.50046   0.12735   0.91310   0.00000  Uiso   1.00
O130   O     0.50080   0.08834   0.87401   0.00000  Uiso   1.00
H130   H     0.50067   0.03862   0.89267   0.00000  Uiso   1.00
H131   H     0.50112   0.96249   0.89270   0.00000  Uiso   1.00
O131   O     0.50108   0.91279   0.87405   0.00000  Uiso   1.00
O132   O     0.50055   0.87377   0.91313   0.00000  Uiso   1.00
H132   H     0.50067   0.89249   0.96280   0.00000  Uiso   1.00
H133   H     0.50081   0.96263   0.10884   0.00000  Uiso   1.00
O133   O     0.50076   0.91299   0.12758   0.00000  Uiso   1.00
O134   O     0.50025   0.87388   0.08858   0.00000  Uiso   1.00
H134   H     0.50027   0.89250   0.03886   0.00000  Uiso   1.00
H135   H     0.50115   0.10866   0.03880   0.00000  Uiso   1.00
O135   O     0.50080   0.12733   0.08849   0.00000  Uiso   1.00
O136   O     0.50086   0.08827   0.12753   0.00000  Uiso   1.00
H136   H     0.50108   0.03860   0.10883   0.00000  Uiso   1.00
Ni2    Ni    0.50091   0.00058   0.00078   0.00000  Uiso   1.00
C425   C     0.90714   0.49985   0.05391   0.00000  Uiso   1.00
C426   C     0.90009   0.50002   0.08081   0.00000  Uiso   1.00
C427   C     0.92005   0.49999   0.10075   0.00000  Uiso   1.00
C428   C     0.94694   0.49989   0.09368   0.00000  Uiso   1.00
C429   C     0.95309   0.49978   0.06678   0.00000  Uiso   1.00
C430   C     0.93406   0.49974   0.04776   0.00000  Uiso   1.00
C431   C     0.94709   0.49971   0.02386   0.00000  Uiso   1.00
N17    N     0.97381   0.49974   0.02706   0.00000  Uiso   1.00
C432   C     0.97697   0.49978   0.05373   0.00000  Uiso   1.00
N18    N     0.00031   0.49996   0.06624   0.00000  Uiso   1.00
C433   C     0.02363   0.50007   0.05374   0.00000  Uiso   1.00
N19    N     0.02683   0.49998   0.02706   0.00000  Uiso   1.00
C434   C     0.05352   0.50019   0.02388   0.00000  Uiso   1.00
C435   C     0.06657   0.50043   0.04779   0.00000  Uiso   1.00
C436   C     0.04753   0.50034   0.06680   0.00000  Uiso   1.00
N20    N     0.02683   0.49982   0.97406   0.00000  Uiso   1.00
C437   C     0.05351   0.49993   0.97722   0.00000  Uiso   1.00
N21    N     0.06602   0.50014   0.00056   0.00000  Uiso   1.00
C438   C     0.06655   0.49995   0.95332   0.00000  Uiso   1.00
C439   C     0.04752   0.49984   0.93430   0.00000  Uiso   1.00
C440   C     0.02362   0.49978   0.94734   0.00000  Uiso   1.00
C441   C     0.05365   0.50057   0.09372   0.00000  Uiso   1.00
C442   C     0.08053   0.50086   0.10081   0.00000  Uiso   1.00
C443   C     0.10050   0.50105   0.08089   0.00000  Uiso   1.00
C444   C     0.09347   0.50082   0.05398   0.00000  Uiso   1.00
C445   C     0.05364   0.49986   0.90739   0.00000  Uiso   1.00
C446   C     0.08053   0.50003   0.90031   0.00000  Uiso   1.00
C447   C     0.10049   0.50023   0.92024   0.00000  Uiso   1.00
C448   C     0.09346   0.50014   0.94714   0.00000  Uiso   1.00
N22    N     0.97381   0.49979   0.97405   0.00000  Uiso   1.00
C449   C     0.97696   0.49993   0.94735   0.00000  Uiso   1.00
N23    N     0.00031   0.49989   0.93486   0.00000  Uiso   1.00
C450   C     0.95308   0.50014   0.93431   0.00000  Uiso   1.00
C451   C     0.93406   0.50010   0.95335   0.00000  Uiso   1.00
C452   C     0.94710   0.49988   0.97722   0.00000  Uiso   1.00
C453   C     0.90715   0.50044   0.94721   0.00000  Uiso   1.00
C454   C     0.90008   0.50080   0.92033   0.00000  Uiso   1.00
C455   C     0.92002   0.50082   0.90037   0.00000  Uiso   1.00
C456   C     0.94691   0.50052   0.90742   0.00000  Uiso   1.00
N24    N     0.93461   0.49982   0.00055   0.00000  Uiso   1.00
H137   H     0.89221   0.49983   0.03857   0.00000  Uiso   1.00
O137   O     0.87354   0.50028   0.08826   0.00000  Uiso   1.00
O138   O     0.91262   0.50012   0.12730   0.00000  Uiso   1.00
H138   H     0.96229   0.49993   0.10861   0.00000  Uiso   1.00
H139   H     0.03828   0.50051   0.10862   0.00000  Uiso   1.00
O139   O     0.08794   0.50086   0.12738   0.00000  Uiso   1.00
O140   O     0.12705   0.50136   0.08839   0.00000  Uiso   1.00
H140   H     0.10842   0.50094   0.03866   0.00000  Uiso   1.00
H141   H     0.03828   0.49976   0.89247   0.00000  Uiso   1.00
O141   O     0.08796   0.50005   0.87375   0.00000  Uiso   1.00
O142   O     0.12704   0.50056   0.91278   0.00000  Uiso   1.00
H142   H     0.10840   0.50024   0.96248   0.00000  Uiso   1.00
H143   H     0.89223   0.50044   0.96256   0.00000  Uiso   1.00
O143   O     0.87352   0.50107   0.91291   0.00000  Uiso   1.00
O144   O     0.91256   0.50106   0.87383   0.00000  Uiso   1.00
H144   H     0.96225   0.50061   0.89248   0.00000  Uiso   1.00
Ni3    Ni    0.00030   0.49983   0.00054   0.00000  Uiso   1.00
Zn1    Zn    0.25077   0.25040   0.39713   0.00000  Uiso   1.00
Zn2    Zn    0.75020   0.25006   0.39702   0.00000  Uiso   1.00
Zn3    Zn    0.75043   0.75044   0.39724   0.00000  Uiso   1.00
Zn4    Zn    0.25061   0.75104   0.39701   0.00000  Uiso   1.00
Zn5    Zn    0.25030   0.74989   0.60404   0.00000  Uiso   1.00
Zn6    Zn    0.25064   0.25075   0.60427   0.00000  Uiso   1.00
Zn7    Zn    0.75067   0.25120   0.60410   0.00000  Uiso   1.00
Zn8    Zn    0.75081   0.75028   0.60439   0.00000  Uiso   1.00
Zn9    Zn    0.39710   0.25116   0.25059   0.00000  Uiso   1.00
Zn10   Zn    0.75051   0.39723   0.25120   0.00000  Uiso   1.00
Zn11   Zn    0.60401   0.75029   0.25074   0.00000  Uiso   1.00
Zn12   Zn    0.25067   0.60409   0.25106   0.00000  Uiso   1.00
Zn13   Zn    0.39692   0.75088   0.75041   0.00000  Uiso   1.00
Zn14   Zn    0.25084   0.39717   0.75064   0.00000  Uiso   1.00
Zn15   Zn    0.60389   0.25105   0.75061   0.00000  Uiso   1.00
Zn16   Zn    0.74978   0.60399   0.75053   0.00000  Uiso   1.00
Zn17   Zn    0.25000   0.39693   0.25071   0.00000  Uiso   1.00
Zn18   Zn    0.25065   0.60430   0.75102   0.00000  Uiso   1.00
Zn19   Zn    0.39679   0.25033   0.75068   0.00000  Uiso   1.00
Zn20   Zn    0.75063   0.39684   0.75093   0.00000  Uiso   1.00
Zn21   Zn    0.60412   0.75106   0.75029   0.00000  Uiso   1.00
Zn22   Zn    0.75077   0.60436   0.25071   0.00000  Uiso   1.00
Zn23   Zn    0.39687   0.75091   0.25092   0.00000  Uiso   1.00
Zn24   Zn    0.60426   0.25079   0.25048   0.00000  Uiso   1.00
Zn25   Zn    0.12339   0.12394   0.50090   0.00000  Uiso   1.00
Zn26   Zn    0.87728   0.12371   0.50075   0.00000  Uiso   1.00
Zn27   Zn    0.87708   0.87764   0.50084   0.00000  Uiso   1.00
Zn28   Zn    0.12353   0.87747   0.50077   0.00000  Uiso   1.00
Zn29   Zn    0.50071   0.12370   0.12393   0.00000  Uiso   1.00
Zn30   Zn    0.87719   0.50031   0.12370   0.00000  Uiso   1.00
Zn31   Zn    0.50053   0.87757   0.12401   0.00000  Uiso   1.00
Zn32   Zn    0.12339   0.50110   0.12383   0.00000  Uiso   1.00
Zn33   Zn    0.50076   0.87736   0.87770   0.00000  Uiso   1.00
Zn34   Zn    0.12340   0.50039   0.87735   0.00000  Uiso   1.00
Zn35   Zn    0.50064   0.12379   0.87767   0.00000  Uiso   1.00
Zn36   Zn    0.87714   0.50110   0.87749   0.00000  Uiso   1.00
loop_
_geom_bond_atom_site_label_1
_geom_bond_atom_site_label_2
_geom_bond_distance
_geom_bond_site_symmetry_2
_ccdc_geom_bond_type
C1     C2      1.431   .     A
C1     C6      1.428   .     A
C1     C11     1.424   .     A
C2     C3      1.429   .     A
C2     C14     1.425   .     A
C3     C4      1.431   .     A
C3     C10     1.425   .     A
C4     C5      1.428   .     A
C4     C7      1.424   .     A
C5     C6      1.430   .     A
C5     C18     1.424   .     A
C6     C15     1.425   .     A
C7     C8      1.389   .     A
C7     H1      1.074   .     S
C8     C9      1.396   .     A
C8     O1      1.397   .     S
C9     C10     1.389   .     A
C9     O2      1.397   .     S
C10    H2      1.074   .     S
C11    C12     1.388   .     A
C11    H3      1.074   .     S
C12    C13     1.396   .     A
C12    O3      1.396   .     S
C13    C14     1.389   .     A
C13    O4      1.397   .     S
C14    H4      1.074   .     S
C15    C16     1.388   .     A
C15    H5      1.074   .     S
C16    C17     1.396   .     A
C16    O5      1.397   .     S
C17    C18     1.389   .     A
C17    O6      1.397   .     S
C18    H6      1.074   .     S
O1     Zn9     1.798   .     S
O2     Zn9     1.799   .     S
O3     Zn1     1.797   .     S
O4     Zn1     1.799   .     S
O5     Zn17    1.798   .     S
O6     Zn17    1.798   .     S
C19    C20     1.431   .     A
C19    C24     1.429   .     A
C19    C29     1.424   .     A
C20    C21     1.428   .     A
C20    C32     1.424   .     A
C21    C22     1.430   .     A
C21    C28     1.424   .     A
C22    C23     1.427   .     A
C22    C25     1.424   .     A
C23    C24     1.430   .     A
C23    C36     1.424   .     A
C24    C33     1.424   .     A
C25    C26     1.388   .     A
C25    H7      1.074   .     S
C26    C27     1.396   .     A
C26    O7      1.396   .     S
C27    C28     1.389   .     A
C27    O8      1.396   .     S
C28    H8      1.074   .     S
C29    C30     1.388   .     A
C29    H9      1.074   .     S
C30    C31     1.396   .     A
C30    O9      1.396   .     S
C31    C32     1.389   .     A
C31    O10     1.396   .     S
C32    H10     1.074   .     S
C33    C34     1.389   .     A
C33    H11     1.074   .     S
C34    C35     1.396   .     A
C34    O11     1.396   .     S
C35    C36     1.388   .     A
C35    O12     1.397   .     S
C36    H12     1.074   .     S
O7     Zn24    1.796   .     S
O8     Zn24    1.798   .     S
O9     Zn10    1.797   .     S
O10    Zn10    1.798   .     S
O11    Zn2     1.797   .     S
O12    Zn2     1.798   .     S
C37    C38     1.430   .     A
C37    C42     1.428   .     A
C37    C47     1.424   .     A
C38    C39     1.428   .     A
C38    C50     1.424   .     A
C39    C40     1.430   .     A
C39    C46     1.424   .     A
C40    C41     1.428   .     A
C40    C43     1.424   .     A
C41    C42     1.430   .     A
C41    C54     1.424   .     A
C42    C51     1.424   .     A
C43    C44     1.388   .     A
C43    H13     1.074   .     S
C44    C45     1.396   .     A
C44    O13     1.397   .     S
C45    C46     1.389   .     A
C45    O14     1.396   .     S
C46    H14     1.074   .     S
C47    C48     1.388   .     A
C47    H15     1.074   .     S
C48    C49     1.396   .     A
C48    O15     1.396   .     S
C49    C50     1.389   .     A
C49    O16     1.397   .     S
C50    H16     1.074   .     S
C51    C52     1.388   .     A
C51    H17     1.074   .     S
C52    C53     1.396   .     A
C52    O17     1.396   .     S
C53    C54     1.388   .     A
C53    O18     1.396   .     S
C54    H18     1.074   .     S
O13    Zn11    1.798   .     S
O14    Zn11    1.798   .     S
O15    Zn3     1.797   .     S
O16    Zn3     1.798   .     S
O17    Zn22    1.797   .     S
O18    Zn22    1.797   .     S
C55    C56     1.430   .     A
C55    C60     1.428   .     A
C55    C65     1.424   .     A
C56    C57     1.429   .     A
C56    C68     1.424   .     A
C57    C58     1.431   .     A
C57    C64     1.424   .     A
C58    C59     1.428   .     A
C58    C61     1.424   .     A
C59    C60     1.430   .     A
C59    C72     1.424   .     A
C60    C69     1.424   .     A
C61    C62     1.388   .     A
C61    H19     1.074   .     S
C62    C63     1.396   .     A
C62    O19     1.396   .     S
C63    C64     1.389   .     A
C63    O20     1.396   .     S
C64    H20     1.074   .     S
C65    C66     1.389   .     A
C65    H21     1.074   .     S
C66    C67     1.396   .     A
C66    O21     1.397   .     S
C67    C68     1.389   .     A
C67    O22     1.397   .     S
C68    H22     1.074   .     S
C69    C70     1.389   .     A
C69    H23     1.074   .     S
C70    C71     1.396   .     A
C70    O23     1.396   .     S
C71    C72     1.388   .     A
C71    O24     1.396   .     S
C72    H24     1.074   .     S
O19    Zn23    1.796   .     S
O20    Zn23    1.798   .     S
O21    Zn12    1.798   .     S
O22    Zn12    1.798   .     S
O23    Zn4     1.798   .     S
O24    Zn4     1.796   .     S
C73    C74     1.431   .     A
C73    C78     1.428   .     A
C73    C83     1.424   .     A
C74    C75     1.428   .     A
C74    C86     1.424   .     A
C75    C76     1.430   .     A
C75    C82     1.424   .     A
C76    C77     1.428   .     A
C76    C79     1.424   .     A
C77    C78     1.430   .     A
C77    C90     1.424   .     A
C78    C87     1.425   .     A
C79    C80     1.388   .     A
C79    H25     1.074   .     S
C80    C81     1.396   .     A
C80    O25     1.396   .     S
C81    C82     1.388   .     A
C81    O26     1.396   .     S
C82    H26     1.074   .     S
C83    C84     1.389   .     A
C83    H27     1.074   .     S
C84    C85     1.396   .     A
C84    O27     1.396   .     S
C85    C86     1.388   .     A
C85    O28     1.397   .     S
C86    H28     1.074   .     S
C87    C88     1.389   .     A
C87    H29     1.074   .     S
C88    C89     1.396   .     A
C88    O29     1.397   .     S
C89    C90     1.388   .     A
C89    O30     1.396   .     S
C90    H30     1.074   .     S
O25    Zn18    1.797   .     S
O26    Zn18    1.797   .     S
O27    Zn5     1.798   .     S
O28    Zn5     1.797   .     S
O29    Zn13    1.799   .     S
O30    Zn13    1.797   .     S
C91    C92     1.430   .     A
C91    C96     1.428   .     A
C91    C101    1.424   .     A
C92    C93     1.427   .     A
C92    C104    1.423   .     A
C93    C94     1.430   .     A
C93    C100    1.423   .     A
C94    C95     1.428   .     A
C94    C97     1.424   .     A
C95    C96     1.430   .     A
C95    C108    1.424   .     A
C96    C105    1.424   .     A
C97    C98     1.389   .     A
C97    H31     1.075   .     S
C98    C99     1.397   .     A
C98    O31     1.396   .     S
C99    C100    1.388   .     A
C99    O32     1.396   .     S
C100   H32     1.075   .     S
C101   C102    1.389   .     A
C101   H33     1.075   .     S
C102   C103    1.397   .     A
C102   O33     1.396   .     S
C103   C104    1.389   .     A
C103   O34     1.396   .     S
C104   H34     1.075   .     S
C105   C106    1.389   .     A
C105   H35     1.074   .     S
C106   C107    1.397   .     A
C106   O35     1.396   .     S
C107   C108    1.389   .     A
C107   O36     1.397   .     S
C108   H36     1.075   .     S
O31    Zn19    1.798   .     S
O32    Zn19    1.798   .     S
O33    Zn6     1.799   .     S
O34    Zn6     1.797   .     S
O35    Zn14    1.798   .     S
O36    Zn14    1.799   .     S
C109   C110    1.430   .     A
C109   C114    1.427   .     A
C109   C119    1.424   .     A
C110   C111    1.428   .     A
C110   C122    1.424   .     A
C111   C112    1.431   .     A
C111   C118    1.424   .     A
C112   C113    1.429   .     A
C112   C115    1.425   .     A
C113   C114    1.430   .     A
C113   C126    1.424   .     A
C114   C123    1.424   .     A
C115   C116    1.389   .     A
C115   H37     1.074   .     S
C116   C117    1.396   .     A
C116   O37     1.397   .     S
C117   C118    1.388   .     A
C117   O38     1.397   .     S
C118   H38     1.074   .     S
C119   C120    1.388   .     A
C119   H39     1.074   .     S
C120   C121    1.396   .     A
C120   O39     1.396   .     S
C121   C122    1.388   .     A
C121   O40     1.396   .     S
C122   H40     1.074   .     S
C123   C124    1.388   .     A
C123   H41     1.074   .     S
C124   C125    1.396   .     A
C124   O41     1.397   .     S
C125   C126    1.389   .     A
C125   O42     1.396   .     S
C126   H42     1.074   .     S
O37    Zn15    1.799   .     S
O38    Zn15    1.797   .     S
O39    Zn20    1.797   .     S
O40    Zn20    1.797   .     S
O41    Zn7     1.797   .     S
O42    Zn7     1.798   .     S
C127   C128    1.430   .     A
C127   C132    1.428   .     A
C127   C137    1.424   .     A
C128   C129    1.428   .     A
C128   C140    1.424   .     A
C129   C130    1.430   .     A
C129   C136    1.424   .     A
C130   C131    1.428   .     A
C130   C133    1.424   .     A
C131   C132    1.430   .     A
C131   C144    1.424   .     A
C132   C141    1.424   .     A
C133   C134    1.389   .     A
C133   H43     1.074   .     S
C134   C135    1.396   .     A
C134   O43     1.396   .     S
C135   C136    1.388   .     A
C135   O44     1.396   .     S
C136   H44     1.074   .     S
C137   C138    1.388   .     A
C137   H45     1.074   .     S
C138   C139    1.396   .     A
C138   O45     1.396   .     S
C139   C140    1.388   .     A
C139   O46     1.396   .     S
C140   H46     1.074   .     S
C141   C142    1.388   .     A
C141   H47     1.074   .     S
C142   C143    1.396   .     A
C142   O47     1.396   .     S
C143   C144    1.389   .     A
C143   O48     1.396   .     S
C144   H48     1.074   .     S
O43    Zn21    1.798   .     S
O44    Zn21    1.796   .     S
O45    Zn8     1.797   .     S
O46    Zn8     1.796   .     S
O47    Zn16    1.796   .     S
O48    Zn16    1.798   .     S
C145   C146    1.430   .     A
C145   C150    1.428   .     A
C145   C155    1.425   .     A
C146   C147    1.428   .     A
C146   C158    1.424   .     A
C147   C148    1.430   .     A
C147   C154    1.424   .     A
C148   C149    1.428   .     A
C148   C151    1.425   .     A
C149   C150    1.431   .     A
C149   C162    1.424   .     A
C150   C159    1.424   .     A
C151   C152    1.389   .     A
C151   H49     1.074   .     S
C152   C153    1.396   .     A
C152   O49     1.397   .     S
C153   C154    1.389   .     A
C153   O50     1.396   .     S
C154   H50     1.074   .     S
C155   C156    1.389   .     A
C155   H51     1.074   .     S
C156   C157    1.396   .     A
C156   O51     1.397   .     S
C157   C158    1.389   .     A
C157   O52     1.396   .     S
C158   H52     1.074   .     S
C159   C160    1.388   .     A
C159   H53     1.074   .     S
C160   C161    1.396   .     A
C160   O53     1.396   .     S
C161   C162    1.389   .     A
C161   O54     1.396   .     S
C162   H54     1.074   .     S
O49    Zn1     1.799   .     S
O50    Zn1     1.797   .     S
O51    Zn6     1.799   .     S
O52    Zn6     1.797   .     S
O53    Zn25    1.798   .     S
O54    Zn25    1.798   .     S
C163   C164    1.430   .     A
C163   C168    1.428   .     A
C163   C173    1.423   .     A
C164   C165    1.428   .     A
C164   C176    1.424   .     A
C165   C166    1.431   .     A
C165   C172    1.424   .     A
C166   C167    1.428   .     A
C166   C169    1.423   .     A
C167   C168    1.429   .     A
C167   C180    1.425   .     A
C168   C177    1.423   .     A
C169   C170    1.387   .     A
C169   H55     1.074   .     S
C170   C171    1.396   .     A
C170   O55     1.395   .     S
C171   C172    1.389   .     A
C171   O56     1.396   .     S
C172   H56     1.074   .     S
C173   C174    1.389   .     A
C173   H57     1.075   .     S
C174   C175    1.397   .     A
C174   O57     1.396   .     S
C175   C176    1.389   .     A
C175   O58     1.397   .     S
C176   H58     1.074   .     S
C177   C178    1.389   .     A
C177   H59     1.075   .     S
C178   C179    1.396   .     A
C178   O59     1.396   .     S
C179   C180    1.388   .     A
C179   O60     1.397   .     S
C180   H60     1.074   .     S
O55    Zn26    1.795   .     S
O56    Zn26    1.798   .     S
O57    Zn7     1.799   .     S
O58    Zn7     1.797   .     S
O59    Zn2     1.798   .     S
O60    Zn2     1.798   .     S
C181   C182    1.430   .     A
C181   C186    1.428   .     A
C181   C191    1.424   .     A
C182   C183    1.428   .     A
C182   C194    1.424   .     A
C183   C184    1.431   .     A
C183   C190    1.424   .     A
C184   C185    1.428   .     A
C184   C187    1.424   .     A
C185   C186    1.430   .     A
C185   C198    1.424   .     A
C186   C195    1.424   .     A
C187   C188    1.387   .     A
C187   H61     1.074   .     S
C188   C189    1.396   .     A
C188   O61     1.396   .     S
C189   C190    1.388   .     A
C189   O62     1.396   .     S
C190   H62     1.074   .     S
C191   C192    1.389   .     A
C191   H63     1.074   .     S
C192   C193    1.396   .     A
C192   O63     1.396   .     S
C193   C194    1.388   .     A
C193   O64     1.397   .     S
C194   H64     1.074   .     S
C195   C196    1.388   .     A
C195   H65     1.074   .     S
C196   C197    1.396   .     A
C196   O65     1.396   .     S
C197   C198    1.388   .     A
C197   O66     1.397   .     S
C198   H66     1.074   .     S
O61    Zn27    1.796   .     S
O62    Zn27    1.797   .     S
O63    Zn3     1.797   .     S
O64    Zn3     1.798   .     S
O65    Zn8     1.796   .     S
O66    Zn8     1.797   .     S
C199   C200    1.430   .     A
C199   C204    1.428   .     A
C199   C209    1.425   .     A
C200   C201    1.428   .     A
C200   C212    1.424   .     A
C201   C202    1.430   .     A
C201   C208    1.423   .     A
C202   C203    1.428   .     A
C202   C205    1.425   .     A
C203   C204    1.431   .     A
C203   C216    1.423   .     A
C204   C213    1.424   .     A
C205   C206    1.389   .     A
C205   H67     1.074   .     S
C206   C207    1.396   .     A
C206   O67     1.397   .     S
C207   C208    1.388   .     A
C207   O68     1.396   .     S
C208   H68     1.074   .     S
C209   C210    1.389   .     A
C209   H69     1.074   .     S
C210   C211    1.396   .     A
C210   O69     1.397   .     S
C211   C212    1.388   .     A
C211   O70     1.396   .     S
C212   H70     1.074   .     S
C213   C214    1.389   .     A
C213   H71     1.074   .     S
C214   C215    1.396   .     A
C214   O71     1.396   .     S
C215   C216    1.387   .     A
C215   O72     1.396   .     S
C216   H72     1.074   .     S
O67    Zn4     1.798   .     S
O68    Zn4     1.796   .     S
O69    Zn5     1.798   .     S
O70    Zn5     1.797   .     S
O71    Zn28    1.799   .     S
O72    Zn28    1.795   .     S
C217   C218    1.430   .     A
C217   C222    1.428   .     A
C217   C227    1.424   .     A
C218   C219    1.428   .     A
C218   C230    1.425   .     A
C219   C220    1.431   .     A
C219   C226    1.424   .     A
C220   C221    1.429   .     A
C220   C223    1.424   .     A
C221   C222    1.430   .     A
C221   C234    1.425   .     A
C222   C231    1.424   .     A
C223   C224    1.389   .     A
C223   H73     1.074   .     S
C224   C225    1.396   .     A
C224   O73     1.396   .     S
C225   C226    1.387   .     A
C225   O74     1.396   .     S
C226   H74     1.074   .     S
C227   C228    1.388   .     A
C227   H75     1.074   .     S
C228   C229    1.396   .     A
C228   O75     1.396   .     S
C229   C230    1.388   .     A
C229   O76     1.397   .     S
C230   H76     1.074   .     S
C231   C232    1.388   .     A
C231   H77     1.074   .     S
C232   C233    1.396   .     A
C232   O77     1.396   .     S
C233   C234    1.389   .     A
C233   O78     1.397   .     S
C234   H78     1.074   .     S
O73    Zn29    1.799   .     S
O74    Zn29    1.796   .     S
O75    Zn24    1.797   .     S
O76    Zn24    1.797   .     S
O77    Zn9     1.797   .     S
O78    Zn9     1.800   .     S
C235   C236    1.430   .     A
C235   C240    1.428   .     A
C235   C245    1.424   .     A
C236   C237    1.428   .     A
C236   C248    1.425   .     A
C237   C238    1.431   .     A
C237   C244    1.424   .     A
C238   C239    1.428   .     A
C238   C241    1.424   .     A
C239   C240    1.430   .     A
C239   C252    1.425   .     A
C240   C249    1.424   .     A
C241   C242    1.388   .     A
C241   H79     1.074   .     S
C242   C243    1.396   .     A
C242   O79     1.396   .     S
C243   C244    1.388   .     A
C243   O80     1.396   .     S
C244   H80     1.074   .     S
C245   C246    1.388   .     A
C245   H81     1.074   .     S
C246   C247    1.396   .     A
C246   O81     1.396   .     S
C247   C248    1.389   .     A
C247   O82     1.397   .     S
C248   H82     1.074   .     S
C249   C250    1.388   .     A
C249   H83     1.074   .     S
C250   C251    1.396   .     A
C250   O83     1.396   .     S
C251   C252    1.388   .     A
C251   O84     1.397   .     S
C252   H84     1.074   .     S
O79    Zn30    1.797   .     S
O80    Zn30    1.797   .     S
O81    Zn10    1.797   .     S
O82    Zn10    1.798   .     S
O83    Zn22    1.796   .     S
O84    Zn22    1.798   .     S
C253   C254    1.430   .     A
C253   C258    1.428   .     A
C253   C263    1.425   .     A
C254   C255    1.428   .     A
C254   C266    1.424   .     A
C255   C256    1.430   .     A
C255   C262    1.424   .     A
C256   C257    1.428   .     A
C256   C259    1.425   .     A
C257   C258    1.431   .     A
C257   C270    1.424   .     A
C258   C267    1.424   .     A
C259   C260    1.389   .     A
C259   H85     1.074   .     S
C260   C261    1.396   .     A
C260   O85     1.397   .     S
C261   C262    1.388   .     A
C261   O86     1.396   .     S
C262   H86     1.074   .     S
C263   C264    1.388   .     A
C263   H87     1.074   .     S
C264   C265    1.396   .     A
C264   O87     1.397   .     S
C265   C266    1.388   .     A
C265   O88     1.396   .     S
C266   H88     1.074   .     S
C267   C268    1.388   .     A
C267   H89     1.074   .     S
C268   C269    1.396   .     A
C268   O89     1.396   .     S
C269   C270    1.388   .     A
C269   O90     1.396   .     S
C270   H90     1.074   .     S
O85    Zn11    1.799   .     S
O86    Zn11    1.797   .     S
O87    Zn23    1.797   .     S
O88    Zn23    1.797   .     S
O89    Zn31    1.796   .     S
O90    Zn31    1.797   .     S
C271   C272    1.430   .     A
C271   C276    1.428   .     A
C271   C281    1.425   .     A
C272   C273    1.429   .     A
C272   C284    1.424   .     A
C273   C274    1.430   .     A
C273   C280    1.424   .     A
C274   C275    1.428   .     A
C274   C277    1.425   .     A
C275   C276    1.431   .     A
C275   C288    1.424   .     A
C276   C285    1.424   .     A
C277   C278    1.389   .     A
C277   H91     1.074   .     S
C278   C279    1.396   .     A
C278   O91     1.397   .     S
C279   C280    1.388   .     A
C279   O92     1.396   .     S
C280   H92     1.074   .     S
C281   C282    1.389   .     A
C281   H93     1.074   .     S
C282   C283    1.396   .     A
C282   O93     1.397   .     S
C283   C284    1.388   .     A
C283   O94     1.396   .     S
C284   H94     1.074   .     S
C285   C286    1.388   .     A
C285   H95     1.074   .     S
C286   C287    1.396   .     A
C286   O95     1.396   .     S
C287   C288    1.388   .     A
C287   O96     1.396   .     S
C288   H96     1.074   .     S
O91    Zn17    1.800   .     S
O92    Zn17    1.796   .     S
O93    Zn12    1.799   .     S
O94    Zn12    1.797   .     S
O95    Zn32    1.798   .     S
O96    Zn32    1.797   .     S
C289   C290    1.430   .     A
C289   C294    1.428   .     A
C289   C299    1.425   .     A
C290   C291    1.429   .     A
C290   C302    1.424   .     A
C291   C292    1.430   .     A
C291   C298    1.424   .     A
C292   C293    1.428   .     A
C292   C295    1.424   .     A
C293   C294    1.430   .     A
C293   C306    1.424   .     A
C294   C303    1.424   .     A
C295   C296    1.388   .     A
C295   H97     1.074   .     S
C296   C297    1.396   .     A
C296   O97     1.397   .     S
C297   C298    1.388   .     A
C297   O98     1.396   .     S
C298   H98     1.074   .     S
C299   C300    1.389   .     A
C299   H99     1.074   .     S
C300   C301    1.396   .     A
C300   O99     1.397   .     S
C301   C302    1.388   .     A
C301   O100    1.396   .     S
C302   H100    1.074   .     S
C303   C304    1.388   .     A
C303   H101    1.074   .     S
C304   C305    1.396   .     A
C304   O101    1.396   .     S
C305   C306    1.388   .     A
C305   O102    1.396   .     S
C306   H102    1.074   .     S
O97    Zn21    1.797   .     S
O98    Zn21    1.796   .     S
O99    Zn13    1.799   .     S
O100   Zn13    1.797   .     S
O101   Zn33    1.797   .     S
O102   Zn33    1.796   .     S
C307   C308    1.430   .     A
C307   C312    1.428   .     A
C307   C317    1.425   .     A
C308   C309    1.428   .     A
C308   C320    1.424   .     A
C309   C310    1.430   .     A
C309   C316    1.424   .     A
C310   C311    1.428   .     A
C310   C313    1.425   .     A
C311   C312    1.431   .     A
C311   C324    1.424   .     A
C312   C321    1.424   .     A
C313   C314    1.389   .     A
C313   H103    1.074   .     S
C314   C315    1.396   .     A
C314   O103    1.397   .     S
C315   C316    1.389   .     A
C315   O104    1.396   .     S
C316   H104    1.074   .     S
C317   C318    1.389   .     A
C317   H105    1.074   .     S
C318   C319    1.396   .     A
C318   O105    1.397   .     S
C319   C320    1.388   .     A
C319   O106    1.396   .     S
C320   H106    1.074   .     S
C321   C322    1.388   .     A
C321   H107    1.074   .     S
C322   C323    1.396   .     A
C322   O107    1.396   .     S
C323   C324    1.388   .     A
C323   O108    1.396   .     S
C324   H108    1.074   .     S
O103   Zn14    1.799   .     S
O104   Zn14    1.798   .     S
O105   Zn18    1.798   .     S
O106   Zn18    1.796   .     S
O107   Zn34    1.797   .     S
O108   Zn34    1.797   .     S
C325   C326    1.430   .     A
C325   C330    1.428   .     A
C325   C335    1.424   .     A
C326   C327    1.428   .     A
C326   C338    1.425   .     A
C327   C328    1.431   .     A
C327   C334    1.424   .     A
C328   C329    1.428   .     A
C328   C331    1.424   .     A
C329   C330    1.429   .     A
C329   C342    1.424   .     A
C330   C339    1.423   .     A
C331   C332    1.388   .     A
C331   H109    1.074   .     S
C332   C333    1.396   .     A
C332   O109    1.396   .     S
C333   C334    1.389   .     A
C333   O110    1.396   .     S
C334   H110    1.074   .     S
C335   C336    1.389   .     A
C335   H111    1.075   .     S
C336   C337    1.397   .     A
C336   O111    1.396   .     S
C337   C338    1.389   .     A
C337   O112    1.397   .     S
C338   H112    1.074   .     S
C339   C340    1.389   .     A
C339   H113    1.075   .     S
C340   C341    1.397   .     A
C340   O113    1.396   .     S
C341   C342    1.389   .     A
C341   O114    1.397   .     S
C342   H114    1.074   .     S
O109   Zn35    1.797   .     S
O110   Zn35    1.798   .     S
O111   Zn15    1.798   .     S
O112   Zn15    1.799   .     S
O113   Zn19    1.798   .     S
O114   Zn19    1.798   .     S
C343   C344    1.430   .     A
C343   C348    1.428   .     A
C343   C353    1.424   .     A
C344   C345    1.428   .     A
C344   C356    1.425   .     A
C345   C346    1.431   .     A
C345   C352    1.424   .     A
C346   C347    1.428   .     A
C346   C349    1.424   .     A
C347   C348    1.430   .     A
C347   C360    1.424   .     A
C348   C357    1.424   .     A
C349   C350    1.388   .     A
C349   H115    1.074   .     S
C350   C351    1.396   .     A
C350   O115    1.396   .     S
C351   C352    1.387   .     A
C351   O116    1.396   .     S
C352   H116    1.074   .     S
C353   C354    1.388   .     A
C353   H117    1.074   .     S
C354   C355    1.396   .     A
C354   O117    1.396   .     S
C355   C356    1.388   .     A
C355   O118    1.397   .     S
C356   H118    1.074   .     S
C357   C358    1.389   .     A
C357   H119    1.074   .     S
C358   C359    1.396   .     A
C358   O119    1.396   .     S
C359   C360    1.388   .     A
C359   O120    1.397   .     S
C360   H120    1.074   .     S
O115   Zn36    1.797   .     S
O116   Zn36    1.795   .     S
O117   Zn20    1.797   .     S
O118   Zn20    1.797   .     S
O119   Zn16    1.797   .     S
O120   Zn16    1.797   .     S
C361   C362    1.406   .     A
C361   C366    1.396   .     A
C361   H121    1.083   .     S
C362   C363    1.427   .     A
C362   O121    1.394   .     S
C363   C364    1.406   .     A
C363   O122    1.394   .     S
C364   C365    1.396   .     A
C364   H122    1.083   .     S
C365   C366    1.361   .     A
C365   C368    1.377   .     A
C366   C367    1.377   .     A
C367   N1      1.361   .     A
C367   N8      1.336   1_565 A
N1     C368    1.357   .     A
N1     Ni1     1.897   1_665 S
C368   N2      1.340   1_655 A
N2     C368    1.340   1_455 A
N2     C369    1.338   .     A
C369   N3      1.359   .     A
C369   C372    1.378   .     A
N3     C370    1.360   .     A
N3     Ni1     1.897   1_565 S
C370   C371    1.378   .     A
C370   N5      1.338   1_565 A
C371   C372    1.361   .     A
C371   C380    1.396   .     A
C372   C377    1.396   .     A
N4     C373    1.358   .     A
N4     C376    1.361   .     A
N4     Ni1     1.895   .     S
C373   N5      1.340   .     A
C373   C374    1.377   .     A
N5     C370    1.338   1_545 A
C374   C375    1.361   .     A
C374   C384    1.396   .     A
C375   C376    1.376   .     A
C375   C381    1.396   .     A
C376   N7      1.337   .     A
C377   C378    1.406   .     A
C377   H123    1.083   .     S
C378   C379    1.427   .     A
C378   O123    1.395   .     S
C379   C380    1.406   .     A
C379   O124    1.395   .     S
C380   H124    1.083   .     S
C381   C382    1.406   .     A
C381   H125    1.083   .     S
C382   C383    1.427   .     A
C382   O125    1.395   .     S
C383   C384    1.407   .     A
C383   O126    1.395   .     S
C384   H126    1.083   .     S
N6     C385    1.361   .     A
N6     C388    1.359   .     A
N6     Ni1     1.894   1_655 S
C385   N7      1.338   1_655 A
C385   C386    1.376   .     A
N7     C385    1.338   1_455 A
C386   C387    1.361   .     A
C386   C392    1.396   .     A
C387   C388    1.376   .     A
C387   C389    1.396   .     A
C388   N8      1.339   .     A
C389   C390    1.406   .     A
C389   H127    1.083   .     S
C390   C391    1.427   .     A
C390   O127    1.394   .     S
C391   C392    1.406   .     A
C391   O128    1.394   .     S
C392   H128    1.083   .     S
N8     C367    1.336   1_545 A
O121   Zn27    1.801   .     S
O122   Zn27    1.801   .     S
O123   Zn28    1.802   .     S
O124   Zn28    1.801   .     S
O125   Zn25    1.801   .     S
O126   Zn25    1.802   .     S
O127   Zn26    1.801   .     S
O128   Zn26    1.800   .     S
Ni1    N6      1.894   1_455 S
Ni1    N3      1.897   1_545 S
Ni1    N1      1.897   1_445 S
C393   C394    1.406   .     A
C393   C398    1.396   .     A
C393   H129    1.083   .     S
C394   C395    1.427   .     A
C394   O129    1.395   .     S
C395   C396    1.407   .     A
C395   O130    1.395   .     S
C396   C397    1.396   .     A
C396   H130    1.083   .     S
C397   C398    1.361   .     A
C397   C400    1.377   .     A
C398   C399    1.377   .     A
C399   N9      1.361   .     A
C399   N16     1.337   1_556 A
N9     C400    1.358   .     A
N9     Ni2     1.896   1_556 S
C400   N10     1.339   .     A
N10    C401    1.339   1_545 A
C401   N10     1.339   1_565 A
C401   N11     1.359   .     A
C401   C404    1.377   .     A
N11    C402    1.360   .     A
N11    Ni2     1.897   1_566 S
C402   C403    1.377   .     A
C402   N13     1.338   1_556 A
C403   C404    1.361   .     A
C403   C412    1.396   .     A
C404   C409    1.396   .     A
N12    C405    1.359   .     A
N12    C408    1.361   .     A
N12    Ni2     1.895   1_565 S
C405   N13     1.339   .     A
C405   C406    1.377   .     A
N13    C402    1.338   1_554 A
C406   C407    1.361   .     A
C406   C416    1.396   .     A
C407   C408    1.376   .     A
C407   C413    1.396   .     A
C408   N15     1.337   1_565 A
C409   C410    1.406   .     A
C409   H131    1.083   .     S
C410   C411    1.427   .     A
C410   O131    1.395   .     S
C411   C412    1.406   .     A
C411   O132    1.395   .     S
C412   H132    1.083   .     S
C413   C414    1.406   .     A
C413   H133    1.083   .     S
C414   C415    1.427   .     A
C414   O133    1.394   .     S
C415   C416    1.406   .     A
C415   O134    1.395   .     S
C416   H134    1.083   .     S
N14    C417    1.361   .     A
N14    C420    1.359   .     A
N14    Ni2     1.895   .     S
C417   N15     1.338   .     A
C417   C418    1.376   .     A
N15    C408    1.337   1_545 A
C418   C419    1.361   .     A
C418   C424    1.396   .     A
C419   C420    1.376   .     A
C419   C421    1.396   .     A
C420   N16     1.339   .     A
C421   C422    1.406   .     A
C421   H135    1.083   .     S
C422   C423    1.427   .     A
C422   O135    1.395   .     S
C423   C424    1.406   .     A
C423   O136    1.395   .     S
C424   H136    1.083   .     S
N16    C399    1.337   1_554 A
O129   Zn35    1.801   .     S
O130   Zn35    1.802   .     S
O131   Zn33    1.801   .     S
O132   Zn33    1.801   .     S
O133   Zn31    1.801   .     S
O134   Zn31    1.802   .     S
O135   Zn29    1.802   .     S
O136   Zn29    1.801   .     S
Ni2    N12     1.895   1_545 S
Ni2    N9      1.896   1_554 S
Ni2    N11     1.897   1_544 S
C425   C426    1.406   .     A
C425   C430    1.396   .     A
C425   H137    1.083   .     S
C426   C427    1.427   .     A
C426   O137    1.395   .     S
C427   C428    1.406   .     A
C427   O138    1.394   .     S
C428   C429    1.396   .     A
C428   H138    1.083   .     S
C429   C430    1.361   .     A
C429   C432    1.377   .     A
C430   C431    1.377   .     A
C431   N17     1.361   .     A
C431   N24     1.337   .     A
N17    C432    1.358   .     A
N17    Ni3     1.896   1_655 S
C432   N18     1.339   1_655 A
N18    C432    1.339   1_455 A
N18    C433    1.338   .     A
C433   N19     1.359   .     A
C433   C436    1.377   .     A
N19    C434    1.360   .     A
N19    Ni3     1.897   .     S
C434   C435    1.378   .     A
C434   N21     1.338   .     A
C435   C436    1.361   .     A
C435   C444    1.396   .     A
C436   C441    1.396   .     A
N20    C437    1.358   .     A
N20    C440    1.361   .     A
N20    Ni3     1.896   1_556 S
C437   N21     1.340   1_556 A
C437   C438    1.377   .     A
N21    C437    1.340   1_554 A
C438   C439    1.361   .     A
C438   C448    1.396   .     A
C439   C440    1.377   .     A
C439   C445    1.396   .     A
C440   N23     1.337   .     A
C441   C442    1.406   .     A
C441   H139    1.083   .     S
C442   C443    1.427   .     A
C442   O139    1.395   .     S
C443   C444    1.407   .     A
C443   O140    1.395   .     S
C444   H140    1.083   .     S
C445   C446    1.406   .     A
C445   H141    1.083   .     S
C446   C447    1.427   .     A
C446   O141    1.395   .     S
C447   C448    1.406   .     A
C447   O142    1.395   .     S
C448   H142    1.083   .     S
N22    C449    1.360   .     A
N22    C452    1.361   .     A
N22    Ni3     1.894   1_656 S
C449   N23     1.339   1_655 A
C449   C450    1.376   .     A
N23    C449    1.339   1_455 A
C450   C451    1.361   .     A
C450   C456    1.396   .     A
C451   C452    1.376   .     A
C451   C453    1.396   .     A
C452   N24     1.338   1_556 A
C453   C454    1.406   .     A
C453   H143    1.083   .     S
C454   C455    1.427   .     A
C454   O143    1.394   .     S
C455   C456    1.406   .     A
C455   O144    1.394   .     S
C456   H144    1.083   .     S
N24    C452    1.338   1_554 A
O137   Zn30    1.802   .     S
O138   Zn30    1.801   .     S
O139   Zn32    1.802   .     S
O140   Zn32    1.802   .     S
O141   Zn34    1.802   .     S
O142   Zn34    1.801   .     S
O143   Zn36    1.800   .     S
O144   Zn36    1.801   .     S
Ni3    N17     1.896   1_455 S
Ni3    N20     1.896   1_554 S
Ni3    N22     1.894   1_454 S
