data_tfn-TN_O-PcM_O-Zntet
_audit_creation_date              2021-11-06
_audit_creation_method            'Materials Studio'
_symmetry_space_group_name_H-M    'P1'
_symmetry_Int_Tables_number       1
_symmetry_cell_setting            triclinic
loop_
_symmetry_equiv_pos_as_xyz
  x,y,z
_cell_length_a                    44.3971
_cell_length_b                    44.3879
_cell_length_c                    35.2381
_cell_angle_alpha                 90.0260
_cell_angle_beta                  89.9869
_cell_angle_gamma                 89.9771
loop_
_atom_site_label
_atom_site_type_symbol
_atom_site_fract_x
_atom_site_fract_y
_atom_site_fract_z
_atom_site_U_iso_or_equiv
_atom_site_adp_type
_atom_site_occupancy
C1     C     0.02873   0.51570   0.85241   0.00000  Uiso   1.00
C2     C     0.01459   0.50825   0.81796   0.00000  Uiso   1.00
C3     C     0.98632   0.49298   0.81797   0.00000  Uiso   1.00
C4     C     0.97220   0.48554   0.85244   0.00000  Uiso   1.00
C5     C     0.98692   0.49348   0.88598   0.00000  Uiso   1.00
C6     C     0.01403   0.50776   0.88597   0.00000  Uiso   1.00
C7     C     0.02180   0.51180   0.92345   0.00000  Uiso   1.00
N1     N     0.00050   0.50060   0.94732   0.00000  Uiso   1.00
C8     C     0.97919   0.48942   0.92346   0.00000  Uiso   1.00
N2     N     0.95371   0.47587   0.93447   0.00000  Uiso   1.00
C9     C     0.94628   0.47129   0.97081   0.00000  Uiso   1.00
N3     N     0.96329   0.47968   0.00111   0.00000  Uiso   1.00
C10    C     0.94692   0.47017   0.03142   0.00000  Uiso   1.00
C11    C     0.92058   0.45634   0.02045   0.00000  Uiso   1.00
C12    C     0.92009   0.45719   0.98186   0.00000  Uiso   1.00
N4     N     0.00055   0.50053   0.05488   0.00000  Uiso   1.00
C13    C     0.97969   0.48855   0.07875   0.00000  Uiso   1.00
N5     N     0.95458   0.47435   0.06777   0.00000  Uiso   1.00
C14    C     0.98726   0.49291   0.11622   0.00000  Uiso   1.00
C15    C     0.01388   0.50810   0.11622   0.00000  Uiso   1.00
C16    C     0.02143   0.51249   0.07874   0.00000  Uiso   1.00
C17    C     0.89580   0.44613   0.96091   0.00000  Uiso   1.00
C18    C     0.87127   0.43413   0.98116   0.00000  Uiso   1.00
C19    C     0.87194   0.43294   0.02160   0.00000  Uiso   1.00
C20    C     0.89696   0.44414   0.04159   0.00000  Uiso   1.00
C21    C     0.02847   0.51626   0.14975   0.00000  Uiso   1.00
C22    C     0.01461   0.50834   0.18422   0.00000  Uiso   1.00
C23    C     0.98658   0.49264   0.18423   0.00000  Uiso   1.00
C24    C     0.97269   0.48473   0.14977   0.00000  Uiso   1.00
N6     N     0.03776   0.52144   0.00109   0.00000  Uiso   1.00
C25    C     0.05416   0.53092   0.03141   0.00000  Uiso   1.00
N7     N     0.04652   0.52670   0.06776   0.00000  Uiso   1.00
C26    C     0.08048   0.54476   0.02043   0.00000  Uiso   1.00
C27    C     0.08095   0.54396   0.98184   0.00000  Uiso   1.00
C28    C     0.05475   0.52987   0.97079   0.00000  Uiso   1.00
C29    C     0.10521   0.55506   0.96088   0.00000  Uiso   1.00
C30    C     0.12975   0.56705   0.98112   0.00000  Uiso   1.00
C31    C     0.12911   0.56818   0.02158   0.00000  Uiso   1.00
C32    C     0.10411   0.55695   0.04157   0.00000  Uiso   1.00
N8     N     0.04728   0.52533   0.93444   0.00000  Uiso   1.00
H1     H     0.05023   0.52720   0.85285   0.00000  Uiso   1.00
O1     O     0.02804   0.51569   0.78343   0.00000  Uiso   1.00
O2     O     0.97287   0.48552   0.78346   0.00000  Uiso   1.00
H2     H     0.95070   0.47404   0.85290   0.00000  Uiso   1.00
H3     H     0.89549   0.44742   0.93024   0.00000  Uiso   1.00
O3     O     0.84557   0.42434   0.96201   0.00000  Uiso   1.00
O4     O     0.84708   0.42160   0.04114   0.00000  Uiso   1.00
H4     H     0.89757   0.44387   0.07230   0.00000  Uiso   1.00
H5     H     0.04970   0.52825   0.14930   0.00000  Uiso   1.00
O5     O     0.02810   0.51574   0.21872   0.00000  Uiso   1.00
O6     O     0.97311   0.48523   0.21874   0.00000  Uiso   1.00
H6     H     0.95146   0.47275   0.14933   0.00000  Uiso   1.00
H7     H     0.10550   0.55380   0.93020   0.00000  Uiso   1.00
O7     O     0.15543   0.57688   0.96196   0.00000  Uiso   1.00
O8     O     0.15398   0.57950   0.04111   0.00000  Uiso   1.00
H8     H     0.10353   0.55718   0.07228   0.00000  Uiso   1.00
Ni1    Ni    0.00052   0.50056   0.00110   0.00000  Uiso   1.00
C33    C     0.94563   0.60498   0.46075   0.00000  Uiso   1.00
C34    C     0.93356   0.62952   0.48093   0.00000  Uiso   1.00
C35    C     0.93234   0.62890   0.52138   0.00000  Uiso   1.00
C36    C     0.94358   0.60393   0.54143   0.00000  Uiso   1.00
C37    C     0.95589   0.58031   0.52035   0.00000  Uiso   1.00
C38    C     0.95675   0.58076   0.48176   0.00000  Uiso   1.00
C39    C     0.97098   0.55462   0.47075   0.00000  Uiso   1.00
N9     N     0.97946   0.53767   0.50105   0.00000  Uiso   1.00
C40    C     0.96986   0.55403   0.53136   0.00000  Uiso   1.00
N10    N     0.97411   0.54643   0.56771   0.00000  Uiso   1.00
C41    C     0.98845   0.52138   0.57870   0.00000  Uiso   1.00
N11    N     0.00052   0.50054   0.55483   0.00000  Uiso   1.00
C42    C     0.01255   0.47970   0.57869   0.00000  Uiso   1.00
C43    C     0.00811   0.48725   0.61618   0.00000  Uiso   1.00
C44    C     0.99284   0.51384   0.61618   0.00000  Uiso   1.00
N12    N     0.02166   0.46342   0.50104   0.00000  Uiso   1.00
C45    C     0.03123   0.44707   0.53134   0.00000  Uiso   1.00
N13    N     0.02692   0.45467   0.56770   0.00000  Uiso   1.00
C46    C     0.04525   0.42080   0.52032   0.00000  Uiso   1.00
C47    C     0.04444   0.42036   0.48173   0.00000  Uiso   1.00
C48    C     0.03020   0.44648   0.47073   0.00000  Uiso   1.00
C49    C     0.98463   0.52842   0.64973   0.00000  Uiso   1.00
C50    C     0.99258   0.51457   0.68419   0.00000  Uiso   1.00
C51    C     0.00832   0.48654   0.68419   0.00000  Uiso   1.00
C52    C     0.01629   0.47268   0.64973   0.00000  Uiso   1.00
C53    C     0.05563   0.39617   0.46069   0.00000  Uiso   1.00
C54    C     0.06771   0.37164   0.48085   0.00000  Uiso   1.00
C55    C     0.06886   0.37224   0.52130   0.00000  Uiso   1.00
C56    C     0.05756   0.39719   0.54138   0.00000  Uiso   1.00
N14    N     0.00060   0.50055   0.44727   0.00000  Uiso   1.00
C57    C     0.01191   0.47930   0.42340   0.00000  Uiso   1.00
N15    N     0.02559   0.45390   0.43439   0.00000  Uiso   1.00
C58    C     0.00783   0.48702   0.38593   0.00000  Uiso   1.00
C59    C     0.99343   0.51408   0.38593   0.00000  Uiso   1.00
C60    C     0.98932   0.52181   0.42341   0.00000  Uiso   1.00
C61    C     0.98544   0.52876   0.35240   0.00000  Uiso   1.00
C62    C     0.99295   0.51464   0.31793   0.00000  Uiso   1.00
C63    C     0.00831   0.48641   0.31793   0.00000  Uiso   1.00
C64    C     0.01583   0.47232   0.35238   0.00000  Uiso   1.00
N16    N     0.97563   0.54721   0.43441   0.00000  Uiso   1.00
H9     H     0.94698   0.60525   0.43008   0.00000  Uiso   1.00
O9     O     0.92377   0.65518   0.46171   0.00000  Uiso   1.00
O10    O     0.92098   0.65380   0.54085   0.00000  Uiso   1.00
H10    H     0.94330   0.60338   0.57214   0.00000  Uiso   1.00
H11    H     0.97261   0.54964   0.64928   0.00000  Uiso   1.00
O11    O     0.98519   0.52808   0.71871   0.00000  Uiso   1.00
O12    O     0.01570   0.47306   0.71870   0.00000  Uiso   1.00
H12    H     0.02832   0.45146   0.64927   0.00000  Uiso   1.00
H13    H     0.05432   0.39591   0.43002   0.00000  Uiso   1.00
O13    O     0.07754   0.34599   0.46160   0.00000  Uiso   1.00
O14    O     0.08021   0.34734   0.54075   0.00000  Uiso   1.00
H14    H     0.05780   0.39774   0.57210   0.00000  Uiso   1.00
H15    H     0.97385   0.55022   0.35285   0.00000  Uiso   1.00
O15    O     0.98548   0.52808   0.28343   0.00000  Uiso   1.00
O16    O     0.01576   0.47294   0.28342   0.00000  Uiso   1.00
H16    H     0.02741   0.45085   0.35283   0.00000  Uiso   1.00
Ni2    Ni    0.00056   0.50055   0.50105   0.00000  Uiso   1.00
C65    C     0.60358   0.94310   0.46069   0.00000  Uiso   1.00
C66    C     0.62887   0.93244   0.48063   0.00000  Uiso   1.00
C67    C     0.63003   0.93467   0.52099   0.00000  Uiso   1.00
C68    C     0.60577   0.94723   0.54121   0.00000  Uiso   1.00
C69    C     0.58124   0.95777   0.52031   0.00000  Uiso   1.00
C70    C     0.58020   0.95584   0.48179   0.00000  Uiso   1.00
C71    C     0.55371   0.96941   0.47082   0.00000  Uiso   1.00
N17    N     0.53776   0.97972   0.50109   0.00000  Uiso   1.00
C72    C     0.55519   0.97215   0.53134   0.00000  Uiso   1.00
N18    N     0.54801   0.97724   0.56768   0.00000  Uiso   1.00
C73    C     0.52230   0.99034   0.57870   0.00000  Uiso   1.00
N19    N     0.50052   0.00060   0.55486   0.00000  Uiso   1.00
C74    C     0.47874   0.01086   0.57871   0.00000  Uiso   1.00
C75    C     0.48663   0.00708   0.61619   0.00000  Uiso   1.00
C76    C     0.51441   0.99412   0.61618   0.00000  Uiso   1.00
N20    N     0.46329   0.02145   0.50112   0.00000  Uiso   1.00
C77    C     0.44586   0.02903   0.53138   0.00000  Uiso   1.00
N21    N     0.45302   0.02394   0.56771   0.00000  Uiso   1.00
C78    C     0.41982   0.04341   0.52037   0.00000  Uiso   1.00
C79    C     0.42087   0.04537   0.48185   0.00000  Uiso   1.00
C80    C     0.44736   0.03178   0.47086   0.00000  Uiso   1.00
C81    C     0.52951   0.98695   0.64972   0.00000  Uiso   1.00
C82    C     0.51505   0.99375   0.68420   0.00000  Uiso   1.00
C83    C     0.48598   0.00745   0.68421   0.00000  Uiso   1.00
C84    C     0.47152   0.01425   0.64975   0.00000  Uiso   1.00
C85    C     0.39752   0.05815   0.46077   0.00000  Uiso   1.00
C86    C     0.37223   0.06881   0.48073   0.00000  Uiso   1.00
C87    C     0.37102   0.06653   0.52108   0.00000  Uiso   1.00
C88    C     0.39527   0.05395   0.54128   0.00000  Uiso   1.00
N22    N     0.50052   0.00057   0.44733   0.00000  Uiso   1.00
C89    C     0.48013   0.01337   0.42349   0.00000  Uiso   1.00
N23    N     0.45528   0.02804   0.43450   0.00000  Uiso   1.00
C90    C     0.48755   0.00872   0.38600   0.00000  Uiso   1.00
C91    C     0.51349   0.99237   0.38599   0.00000  Uiso   1.00
C92    C     0.52091   0.98776   0.42348   0.00000  Uiso   1.00
C93    C     0.52769   0.98353   0.35244   0.00000  Uiso   1.00
C94    C     0.51415   0.99200   0.31798   0.00000  Uiso   1.00
C95    C     0.48689   0.00903   0.31799   0.00000  Uiso   1.00
C96    C     0.47335   0.01753   0.35246   0.00000  Uiso   1.00
N24    N     0.54579   0.97312   0.43447   0.00000  Uiso   1.00
H17    H     0.60258   0.94200   0.43002   0.00000  Uiso   1.00
O17    O     0.65352   0.92063   0.46108   0.00000  Uiso   1.00
O18    O     0.65595   0.92534   0.54004   0.00000  Uiso   1.00
H18    H     0.60646   0.94935   0.57181   0.00000  Uiso   1.00
H19    H     0.55158   0.97656   0.64926   0.00000  Uiso   1.00
O19    O     0.52897   0.98720   0.71871   0.00000  Uiso   1.00
O20    O     0.47206   0.01399   0.71874   0.00000  Uiso   1.00
H20    H     0.44946   0.02464   0.64931   0.00000  Uiso   1.00
H21    H     0.39854   0.05928   0.43011   0.00000  Uiso   1.00
O21    O     0.34761   0.08068   0.46120   0.00000  Uiso   1.00
O22    O     0.34508   0.07581   0.54013   0.00000  Uiso   1.00
H22    H     0.39455   0.05179   0.57187   0.00000  Uiso   1.00
H23    H     0.54836   0.97059   0.35288   0.00000  Uiso   1.00
O23    O     0.52721   0.98386   0.28346   0.00000  Uiso   1.00
O24    O     0.47385   0.01717   0.28348   0.00000  Uiso   1.00
H24    H     0.45268   0.03046   0.35291   0.00000  Uiso   1.00
Ni3    Ni    0.50052   0.00058   0.50110   0.00000  Uiso   1.00
C97    C     0.51412   0.02957   0.85248   0.00000  Uiso   1.00
C98    C     0.50734   0.01511   0.81801   0.00000  Uiso   1.00
C99    C     0.49369   0.98603   0.81798   0.00000  Uiso   1.00
C100   C     0.48693   0.97154   0.85244   0.00000  Uiso   1.00
C101   C     0.49408   0.98664   0.88600   0.00000  Uiso   1.00
C102   C     0.50698   0.01445   0.88602   0.00000  Uiso   1.00
C103   C     0.51075   0.02234   0.92351   0.00000  Uiso   1.00
N25    N     0.50055   0.00053   0.94734   0.00000  Uiso   1.00
C104   C     0.49034   0.97873   0.92349   0.00000  Uiso   1.00
N26    N     0.47737   0.95296   0.93449   0.00000  Uiso   1.00
C105   C     0.47234   0.94575   0.97082   0.00000  Uiso   1.00
N27    N     0.47984   0.96321   0.00108   0.00000  Uiso   1.00
C106   C     0.46961   0.94723   0.03135   0.00000  Uiso   1.00
C107   C     0.45615   0.92068   0.02037   0.00000  Uiso   1.00
C108   C     0.45809   0.91963   0.98184   0.00000  Uiso   1.00
N28    N     0.50056   0.00053   0.05487   0.00000  Uiso   1.00
C109   C     0.48782   0.98010   0.07871   0.00000  Uiso   1.00
N29    N     0.47328   0.95518   0.06770   0.00000  Uiso   1.00
C110   C     0.49242   0.98754   0.11620   0.00000  Uiso   1.00
C111   C     0.50869   0.01351   0.11621   0.00000  Uiso   1.00
C112   C     0.51329   0.02095   0.07873   0.00000  Uiso   1.00
C113   C     0.44767   0.89503   0.96095   0.00000  Uiso   1.00
C114   C     0.43522   0.87073   0.98117   0.00000  Uiso   1.00
C115   C     0.43290   0.87195   0.02153   0.00000  Uiso   1.00
C116   C     0.44348   0.89728   0.04146   0.00000  Uiso   1.00
C117   C     0.51749   0.02772   0.14977   0.00000  Uiso   1.00
C118   C     0.50904   0.01416   0.18422   0.00000  Uiso   1.00
C119   C     0.49206   0.98688   0.18421   0.00000  Uiso   1.00
C120   C     0.48363   0.97332   0.14974   0.00000  Uiso   1.00
N30    N     0.52127   0.03784   0.00112   0.00000  Uiso   1.00
C121   C     0.53152   0.05382   0.03140   0.00000  Uiso   1.00
N31    N     0.52784   0.04587   0.06774   0.00000  Uiso   1.00
C122   C     0.54498   0.08037   0.02044   0.00000  Uiso   1.00
C123   C     0.54304   0.08141   0.98192   0.00000  Uiso   1.00
C124   C     0.52878   0.05530   0.97088   0.00000  Uiso   1.00
C125   C     0.55346   0.10600   0.96104   0.00000  Uiso   1.00
C126   C     0.56593   0.13031   0.98127   0.00000  Uiso   1.00
C127   C     0.56825   0.12909   0.02162   0.00000  Uiso   1.00
C128   C     0.55766   0.10376   0.04155   0.00000  Uiso   1.00
N32    N     0.52373   0.04810   0.93454   0.00000  Uiso   1.00
H25    H     0.52447   0.05165   0.85295   0.00000  Uiso   1.00
O25    O     0.51388   0.02904   0.78350   0.00000  Uiso   1.00
O26    O     0.48714   0.97212   0.78346   0.00000  Uiso   1.00
H26    H     0.47658   0.94946   0.85287   0.00000  Uiso   1.00
H27    H     0.44981   0.89431   0.93036   0.00000  Uiso   1.00
O27    O     0.42605   0.84474   0.96215   0.00000  Uiso   1.00
O28    O     0.42103   0.84734   0.04106   0.00000  Uiso   1.00
H28    H     0.44236   0.89831   0.07213   0.00000  Uiso   1.00
H29    H     0.53037   0.04842   0.14933   0.00000  Uiso   1.00
O29    O     0.51717   0.02721   0.21875   0.00000  Uiso   1.00
O30    O     0.48392   0.97383   0.21871   0.00000  Uiso   1.00
H30    H     0.47074   0.95262   0.14928   0.00000  Uiso   1.00
H31    H     0.55133   0.10671   0.93045   0.00000  Uiso   1.00
O31    O     0.57509   0.15629   0.96227   0.00000  Uiso   1.00
O32    O     0.58012   0.15370   0.04117   0.00000  Uiso   1.00
H32    H     0.55878   0.10274   0.07221   0.00000  Uiso   1.00
Ni4    Ni    0.50055   0.00053   0.00111   0.00000  Uiso   1.00
C129   C     0.34046   0.61514   0.00170   0.00000  Uiso   1.00
C130   C     0.33203   0.64618   0.00003   0.00000  Uiso   1.00
C131   C     0.35487   0.66894  -0.00005   0.00000  Uiso   1.00
C132   C     0.38582   0.66043   0.00232   0.00000  Uiso   1.00
C133   C     0.39419   0.62943   0.00043   0.00000  Uiso   1.00
C134   C     0.37149   0.60673   0.00022   0.00000  Uiso   1.00
C135   C     0.40780   0.68340   0.00660   0.00000  Uiso   1.00
C136   C     0.40031   0.71385   0.00494   0.00000  Uiso   1.00
C137   C     0.37009   0.72243   0.00036   0.00000  Uiso   1.00
C138   C     0.34778   0.70023  -0.00182   0.00000  Uiso   1.00
C139   C     0.31737   0.59315   0.00483   0.00000  Uiso   1.00
C140   C     0.28695   0.60082   0.00366   0.00000  Uiso   1.00
C141   C     0.27848   0.63120   0.00084   0.00000  Uiso   1.00
C142   C     0.30077   0.65346  -0.00050   0.00000  Uiso   1.00
C143   C     0.38060   0.57605  -0.00240   0.00000  Uiso   1.00
C144   C     0.41089   0.56773  -0.00352   0.00000  Uiso   1.00
C145   C     0.43325   0.59014  -0.00366   0.00000  Uiso   1.00
C146   C     0.42486   0.62041  -0.00251   0.00000  Uiso   1.00
C147   C     0.46386   0.58183  -0.00536   0.00000  Uiso   1.00
C148   C     0.47155   0.55135  -0.00644   0.00000  Uiso   1.00
C149   C     0.44972   0.52948  -0.00627   0.00000  Uiso   1.00
C150   C     0.41925   0.53713  -0.00501   0.00000  Uiso   1.00
C151   C     0.36256   0.75325  -0.00153   0.00000  Uiso   1.00
C152   C     0.38515   0.77516   0.00075   0.00000  Uiso   1.00
C153   C     0.41547   0.76634   0.00496   0.00000  Uiso   1.00
C154   C     0.42291   0.73590   0.00739   0.00000  Uiso   1.00
H33    H     0.43112   0.67844   0.01210   0.00000  Uiso   1.00
H34    H     0.32513   0.70834  -0.00520   0.00000  Uiso   1.00
H35    H     0.32211   0.56963   0.00899   0.00000  Uiso   1.00
H36    H     0.29270   0.67627  -0.00170   0.00000  Uiso   1.00
H37    H     0.36478   0.55780  -0.00461   0.00000  Uiso   1.00
H38    H     0.44299   0.63636  -0.00512   0.00000  Uiso   1.00
H39    H     0.48149   0.59869  -0.00558   0.00000  Uiso   1.00
O33    O     0.50098   0.54135  -0.00759   0.00000  Uiso   1.00
O34    O     0.45974   0.50005  -0.00731   0.00000  Uiso   1.00
H40    H     0.40242   0.51945  -0.00498   0.00000  Uiso   1.00
H41    H     0.33934   0.76028  -0.00486   0.00000  Uiso   1.00
O35    O     0.37808   0.80579  -0.00127   0.00000  Uiso   1.00
O36    O     0.43796   0.78820   0.00641   0.00000  Uiso   1.00
H42    H     0.44634   0.72956   0.01072   0.00000  Uiso   1.00
C155   C     0.24769   0.63892  -0.00015   0.00000  Uiso   1.00
C156   C     0.22570   0.61637   0.00122   0.00000  Uiso   1.00
C157   C     0.23441   0.58589   0.00363   0.00000  Uiso   1.00
C158   C     0.26482   0.57824   0.00515   0.00000  Uiso   1.00
H43    H     0.24073   0.66227  -0.00210   0.00000  Uiso   1.00
O37    O     0.19508   0.62362   0.00009   0.00000  Uiso   1.00
O38    O     0.21248   0.56345   0.00432   0.00000  Uiso   1.00
H44    H     0.27108   0.55468   0.00715   0.00000  Uiso   1.00
C159   C     0.84047   0.88584   0.49921   0.00000  Uiso   1.00
C160   C     0.83203   0.85484   0.50081   0.00000  Uiso   1.00
C161   C     0.85478   0.83202   0.50093   0.00000  Uiso   1.00
C162   C     0.88583   0.84040   0.50187   0.00000  Uiso   1.00
C163   C     0.89422   0.87145   0.50068   0.00000  Uiso   1.00
C164   C     0.87151   0.89418   0.50051   0.00000  Uiso   1.00
C165   C     0.90781   0.81723   0.50455   0.00000  Uiso   1.00
C166   C     0.90006   0.78682   0.50360   0.00000  Uiso   1.00
C167   C     0.86966   0.77843   0.50082   0.00000  Uiso   1.00
C168   C     0.84747   0.80079   0.49949   0.00000  Uiso   1.00
C169   C     0.81739   0.90783   0.49577   0.00000  Uiso   1.00
C170   C     0.78697   0.90020   0.49715   0.00000  Uiso   1.00
C171   C     0.77851   0.86989   0.50104   0.00000  Uiso   1.00
C172   C     0.80079   0.84764   0.50276   0.00000  Uiso   1.00
C173   C     0.88063   0.92488   0.50235   0.00000  Uiso   1.00
C174   C     0.91090   0.93325   0.50173   0.00000  Uiso   1.00
C175   C     0.93328   0.91087   0.49997   0.00000  Uiso   1.00
C176   C     0.92493   0.88059   0.49917   0.00000  Uiso   1.00
C177   C     0.96389   0.91922   0.49943   0.00000  Uiso   1.00
C178   C     0.97156   0.94969   0.50051   0.00000  Uiso   1.00
C179   C     0.94972   0.97154   0.50171   0.00000  Uiso   1.00
C180   C     0.91925   0.96386   0.50255   0.00000  Uiso   1.00
C181   C     0.86188   0.74767   0.49956   0.00000  Uiso   1.00
C182   C     0.88438   0.72560   0.50087   0.00000  Uiso   1.00
C183   C     0.91487   0.73423   0.50337   0.00000  Uiso   1.00
C184   C     0.92259   0.76462   0.50497   0.00000  Uiso   1.00
H45    H     0.93140   0.82186   0.50802   0.00000  Uiso   1.00
H46    H     0.82470   0.79289   0.49645   0.00000  Uiso   1.00
H47    H     0.82216   0.93131   0.49127   0.00000  Uiso   1.00
H48    H     0.79285   0.82495   0.50649   0.00000  Uiso   1.00
H49    H     0.86481   0.94310   0.50521   0.00000  Uiso   1.00
H50    H     0.94320   0.86484   0.49662   0.00000  Uiso   1.00
H51    H     0.98155   0.90239   0.49835   0.00000  Uiso   1.00
O39    O     0.00100   0.95969   0.50047   0.00000  Uiso   1.00
O40    O     0.95973   0.00098   0.50200   0.00000  Uiso   1.00
H52    H     0.90241   0.98152   0.50366   0.00000  Uiso   1.00
H53    H     0.83853   0.74078   0.49756   0.00000  Uiso   1.00
O41    O     0.87706   0.69501   0.49963   0.00000  Uiso   1.00
O42    O     0.93725   0.71222   0.50406   0.00000  Uiso   1.00
H54    H     0.94616   0.77080   0.50694   0.00000  Uiso   1.00
C185   C     0.74773   0.86225   0.50293   0.00000  Uiso   1.00
C186   C     0.72573   0.88479   0.50112   0.00000  Uiso   1.00
C187   C     0.73442   0.91518   0.49736   0.00000  Uiso   1.00
C188   C     0.76482   0.92277   0.49515   0.00000  Uiso   1.00
H55    H     0.74080   0.83896   0.50584   0.00000  Uiso   1.00
O43    O     0.69514   0.87760   0.50311   0.00000  Uiso   1.00
O44    O     0.71248   0.93761   0.49610   0.00000  Uiso   1.00
H56    H     0.77106   0.94626   0.49229   0.00000  Uiso   1.00
C189   C     0.61525   0.34062   0.00246   0.00000  Uiso   1.00
C190   C     0.64621   0.33212   0.00003   0.00000  Uiso   1.00
C191   C     0.66903   0.35488   0.00007   0.00000  Uiso   1.00
C192   C     0.66060   0.38592   0.00175   0.00000  Uiso   1.00
C193   C     0.62957   0.39431   0.00023   0.00000  Uiso   1.00
C194   C     0.60688   0.37162   0.00058   0.00000  Uiso   1.00
C195   C     0.68367   0.40792   0.00499   0.00000  Uiso   1.00
C196   C     0.71408   0.40027   0.00379   0.00000  Uiso   1.00
C197   C     0.72258   0.36989   0.00086   0.00000  Uiso   1.00
C198   C     0.70030   0.34762  -0.00052   0.00000  Uiso   1.00
C199   C     0.59328   0.31764   0.00676   0.00000  Uiso   1.00
C200   C     0.60079   0.28719   0.00509   0.00000  Uiso   1.00
C201   C     0.63101   0.27862   0.00046   0.00000  Uiso   1.00
C202   C     0.65331   0.30083  -0.00175   0.00000  Uiso   1.00
C203   C     0.57619   0.38064  -0.00221   0.00000  Uiso   1.00
C204   C     0.56782   0.41092  -0.00348   0.00000  Uiso   1.00
C205   C     0.59020   0.43332  -0.00363   0.00000  Uiso   1.00
C206   C     0.62048   0.42499  -0.00260   0.00000  Uiso   1.00
C207   C     0.58185   0.46392  -0.00528   0.00000  Uiso   1.00
C208   C     0.55137   0.47157  -0.00640   0.00000  Uiso   1.00
C209   C     0.52954   0.44971  -0.00628   0.00000  Uiso   1.00
C210   C     0.53722   0.41924  -0.00505   0.00000  Uiso   1.00
C211   C     0.75337   0.36220  -0.00020   0.00000  Uiso   1.00
C212   C     0.77535   0.38476   0.00123   0.00000  Uiso   1.00
C213   C     0.76662   0.41523   0.00378   0.00000  Uiso   1.00
C214   C     0.73620   0.42286   0.00536   0.00000  Uiso   1.00
H57    H     0.67888   0.43142   0.00931   0.00000  Uiso   1.00
H58    H     0.70838   0.32482  -0.00179   0.00000  Uiso   1.00
H59    H     0.56996   0.32258   0.01226   0.00000  Uiso   1.00
H60    H     0.67596   0.29272  -0.00514   0.00000  Uiso   1.00
H61    H     0.55804   0.36470  -0.00460   0.00000  Uiso   1.00
H62    H     0.63633   0.44319  -0.00509   0.00000  Uiso   1.00
H63    H     0.59868   0.48159  -0.00546   0.00000  Uiso   1.00
O45    O     0.54135   0.50100  -0.00757   0.00000  Uiso   1.00
O46    O     0.50010   0.45971  -0.00732   0.00000  Uiso   1.00
H64    H     0.51957   0.40238  -0.00506   0.00000  Uiso   1.00
H65    H     0.76035   0.33886  -0.00225   0.00000  Uiso   1.00
O47    O     0.80597   0.37753   0.00003   0.00000  Uiso   1.00
O48    O     0.78854   0.43768   0.00452   0.00000  Uiso   1.00
H66    H     0.72993   0.44641   0.00746   0.00000  Uiso   1.00
C215   C     0.63855   0.24781  -0.00145   0.00000  Uiso   1.00
C216   C     0.61598   0.22589   0.00086   0.00000  Uiso   1.00
C217   C     0.58565   0.23469   0.00512   0.00000  Uiso   1.00
C218   C     0.57819   0.26513   0.00756   0.00000  Uiso   1.00
H67    H     0.66177   0.24078  -0.00482   0.00000  Uiso   1.00
O49    O     0.62306   0.19526  -0.00118   0.00000  Uiso   1.00
O50    O     0.56317   0.21283   0.00658   0.00000  Uiso   1.00
H68    H     0.55476   0.27147   0.01093   0.00000  Uiso   1.00
C219   C     0.11518   0.16068   0.50209   0.00000  Uiso   1.00
C220   C     0.14624   0.16904   0.50104   0.00000  Uiso   1.00
C221   C     0.16899   0.14623   0.50083   0.00000  Uiso   1.00
C222   C     0.16056   0.11524   0.49892   0.00000  Uiso   1.00
C223   C     0.12951   0.10688   0.50019   0.00000  Uiso   1.00
C224   C     0.10679   0.12961   0.50102   0.00000  Uiso   1.00
C225   C     0.18368   0.09328   0.49540   0.00000  Uiso   1.00
C226   C     0.21410   0.10093   0.49695   0.00000  Uiso   1.00
C227   C     0.22252   0.13123   0.50111   0.00000  Uiso   1.00
C228   C     0.20021   0.15344   0.50297   0.00000  Uiso   1.00
C229   C     0.09323   0.18390   0.50456   0.00000  Uiso   1.00
C230   C     0.10102   0.21430   0.50358   0.00000  Uiso   1.00
C231   C     0.13143   0.22265   0.50084   0.00000  Uiso   1.00
C232   C     0.15358   0.20026   0.49952   0.00000  Uiso   1.00
C233   C     0.07606   0.12044   0.50029   0.00000  Uiso   1.00
C234   C     0.06774   0.09015   0.50065   0.00000  Uiso   1.00
C235   C     0.09014   0.06777   0.50123   0.00000  Uiso   1.00
C236   C     0.12041   0.07614   0.50141   0.00000  Uiso   1.00
C237   C     0.08181   0.03714   0.50142   0.00000  Uiso   1.00
C238   C     0.05134   0.02946   0.50118   0.00000  Uiso   1.00
C239   C     0.02947   0.05132   0.50122   0.00000  Uiso   1.00
C240   C     0.03713   0.08179   0.50077   0.00000  Uiso   1.00
C241   C     0.25329   0.13889   0.50317   0.00000  Uiso   1.00
C242   C     0.27531   0.11638   0.50126   0.00000  Uiso   1.00
C243   C     0.26665   0.08599   0.49729   0.00000  Uiso   1.00
C244   C     0.23627   0.07839   0.49491   0.00000  Uiso   1.00
H69    H     0.17899   0.06981   0.49081   0.00000  Uiso   1.00
H70    H     0.20812   0.17612   0.50703   0.00000  Uiso   1.00
H71    H     0.06959   0.17937   0.50770   0.00000  Uiso   1.00
H72    H     0.17636   0.20813   0.49634   0.00000  Uiso   1.00
H73    H     0.05770   0.13616   0.49886   0.00000  Uiso   1.00
H74    H     0.13621   0.05786   0.50338   0.00000  Uiso   1.00
H75    H     0.09866   0.01948   0.50158   0.00000  Uiso   1.00
O51    O     0.04133   1.00002   0.50089   0.00000  Uiso   1.00
O52    O     1.00004   0.04130   0.50171   0.00000  Uiso   1.00
H76    H     0.01945   0.09863   0.50063   0.00000  Uiso   1.00
H77    H     0.26019   0.16217   0.50626   0.00000  Uiso   1.00
O53    O     0.30590   0.12359   0.50336   0.00000  Uiso   1.00
O54    O     0.28862   0.06358   0.49601   0.00000  Uiso   1.00
H78    H     0.23006   0.05490   0.49187   0.00000  Uiso   1.00
C245   C     0.13925   0.25340   0.49954   0.00000  Uiso   1.00
C246   C     0.11678   0.27550   0.50078   0.00000  Uiso   1.00
C247   C     0.08627   0.26692   0.50322   0.00000  Uiso   1.00
C248   C     0.07851   0.23654   0.50484   0.00000  Uiso   1.00
H79    H     0.16262   0.26025   0.49756   0.00000  Uiso   1.00
O55    O     0.12415   0.30608   0.49956   0.00000  Uiso   1.00
O56    O     0.06392   0.28896   0.50385   0.00000  Uiso   1.00
H80    H     0.05493   0.23040   0.50676   0.00000  Uiso   1.00
Cu1    Cu    0.50054   0.50053  -0.00751   0.00000  Uiso   1.00
Cu2    Cu    0.00053   0.00050   0.50127   0.00000  Uiso   1.00
Zn1    Zn    0.17910   0.58620   0.00185   0.00000  Uiso   1.00
Zn2    Zn    0.91443   0.67891   0.50153   0.00000  Uiso   1.00
Zn3    Zn    0.82193   0.41496   0.00190   0.00000  Uiso   1.00
Zn4    Zn    0.08680   0.32223   0.50141   0.00000  Uiso   1.00
Zn5    Zn    0.67913   0.91497   0.50011   0.00000  Uiso   1.00
Zn6    Zn    0.58567   0.17939   0.00219   0.00000  Uiso   1.00
Zn7    Zn    0.32194   0.08624   0.50021   0.00000  Uiso   1.00
Zn8    Zn    0.41547   0.82165   0.00207   0.00000  Uiso   1.00
Zn9    Zn    0.00061   0.50050   0.25108   0.00000  Uiso   1.00
Zn10   Zn    0.00045   0.50059   0.75108   0.00000  Uiso   1.00
Zn11   Zn    0.50054   0.00051   0.25110   0.00000  Uiso   1.00
Zn12   Zn    0.50051   0.00059   0.75110   0.00000  Uiso   1.00
loop_
_geom_bond_atom_site_label_1
_geom_bond_atom_site_label_2
_geom_bond_distance
_geom_bond_site_symmetry_2
_ccdc_geom_bond_type
C1     C2      1.406   .     A
C1     C6      1.396   .     A
C1     H1      1.083   .     S
C2     C3      1.427   1_455 A
C2     O1      1.395   .     S
C3     C2      1.427   1_655 A
C3     C4      1.406   .     A
C3     O2      1.395   .     S
C4     C5      1.396   .     A
C4     H2      1.083   .     S
C5     C6      1.361   1_655 A
C5     C8      1.377   .     A
C6     C5      1.361   1_455 A
C6     C7      1.377   .     A
C7     N1      1.360   .     A
C7     N8      1.338   .     A
N1     C8      1.360   1_455 A
N1     Ni1     1.895   1_556 S
C8     N1      1.360   1_655 A
C8     N2      1.338   .     A
N2     C9      1.338   .     A
C9     N3      1.360   1_556 A
C9     C12     1.377   .     A
N3     C9      1.360   1_554 A
N3     C10     1.359   .     A
N3     Ni1     1.896   1_655 S
C10    C11     1.376   .     A
C10    N5      1.338   .     A
C11    C12     1.361   1_554 A
C11    C20     1.396   .     A
C12    C11     1.361   1_556 A
C12    C17     1.396   .     A
N4     C13     1.359   1_455 A
N4     C16     1.359   .     A
N4     Ni1     1.895   .     S
C13    N4      1.359   1_655 A
C13    N5      1.338   .     A
C13    C14     1.376   .     A
C14    C15     1.361   1_655 A
C14    C24     1.396   .     A
C15    C14     1.361   1_455 A
C15    C16     1.376   .     A
C15    C21     1.396   .     A
C16    N7      1.338   .     A
C17    C18     1.407   .     A
C17    H3      1.083   .     S
C18    C19     1.427   1_556 A
C18    O3      1.395   .     S
C19    C18     1.427   1_554 A
C19    C20     1.406   .     A
C19    O4      1.395   .     S
C20    H4      1.083   .     S
C21    C22     1.406   .     A
C21    H5      1.083   .     S
C22    C23     1.427   1_455 A
C22    O5      1.395   .     S
C23    C22     1.427   1_655 A
C23    C24     1.406   .     A
C23    O6      1.395   .     S
C24    H6      1.083   .     S
N6     C25     1.359   .     A
N6     C28     1.360   1_554 A
N6     Ni1     1.896   .     S
C25    N7      1.338   .     A
C25    C26     1.376   .     A
C26    C27     1.361   1_554 A
C26    C32     1.396   .     A
C27    C26     1.361   1_556 A
C27    C28     1.377   .     A
C27    C29     1.396   .     A
C28    N6      1.360   1_556 A
C28    N8      1.338   .     A
C29    C30     1.407   .     A
C29    H7      1.083   .     S
C30    C31     1.427   1_556 A
C30    O7      1.395   .     S
C31    C30     1.427   1_554 A
C31    C32     1.406   .     A
C31    O8      1.395   .     S
C32    H8      1.083   .     S
O1     Zn10    1.803   .     S
O2     Zn10    1.803   1_655 S
O3     Zn3     1.803   1_556 S
O4     Zn3     1.802   .     S
O5     Zn9     1.802   .     S
O6     Zn9     1.803   1_655 S
O7     Zn1     1.803   1_556 S
O8     Zn1     1.802   .     S
Ni1    N3      1.896   1_455 S
Ni1    N1      1.895   1_554 S
C33    C34     1.406   .     A
C33    C38     1.396   .     A
C33    H9      1.083   .     S
C34    C35     1.427   .     A
C34    O9      1.395   .     S
C35    C36     1.406   .     A
C35    O10     1.395   .     S
C36    C37     1.396   .     A
C36    H10     1.083   .     S
C37    C38     1.361   .     A
C37    C40     1.377   .     A
C38    C39     1.376   .     A
C39    N9      1.360   .     A
C39    N16     1.338   .     A
N9     C40     1.360   .     A
N9     Ni2     1.895   1_655 S
C40    N10     1.338   .     A
N10    C41     1.338   .     A
C41    N11     1.360   1_655 A
C41    C44     1.377   .     A
N11    C41     1.360   1_455 A
N11    C42     1.360   .     A
N11    Ni2     1.895   .     S
C42    C43     1.377   .     A
C42    N13     1.338   .     A
C43    C44     1.361   1_455 A
C43    C52     1.396   .     A
C44    C43     1.361   1_655 A
C44    C49     1.396   .     A
N12    C45     1.360   .     A
N12    C48     1.360   .     A
N12    Ni2     1.895   .     S
C45    N13     1.338   .     A
C45    C46     1.377   .     A
C46    C47     1.361   .     A
C46    C56     1.396   .     A
C47    C48     1.376   .     A
C47    C53     1.396   .     A
C48    N15     1.338   .     A
C49    C50     1.406   .     A
C49    H11     1.083   .     S
C50    C51     1.427   1_655 A
C50    O11     1.395   .     S
C51    C50     1.427   1_455 A
C51    C52     1.406   .     A
C51    O12     1.395   .     S
C52    H12     1.083   .     S
C53    C54     1.406   .     A
C53    H13     1.083   .     S
C54    C55     1.427   .     A
C54    O13     1.395   .     S
C55    C56     1.406   .     A
C55    O14     1.395   .     S
C56    H14     1.083   .     S
N14    C57     1.359   .     A
N14    C60     1.359   1_455 A
N14    Ni2     1.895   .     S
C57    N15     1.338   .     A
C57    C58     1.376   .     A
C58    C59     1.361   1_455 A
C58    C64     1.396   .     A
C59    C58     1.361   1_655 A
C59    C60     1.376   .     A
C59    C61     1.396   .     A
C60    N14     1.359   1_655 A
C60    N16     1.338   .     A
C61    C62     1.406   .     A
C61    H15     1.083   .     S
C62    C63     1.427   1_655 A
C62    O15     1.395   .     S
C63    C62     1.427   1_455 A
C63    C64     1.406   .     A
C63    O16     1.395   .     S
C64    H16     1.083   .     S
O9     Zn2     1.803   .     S
O10    Zn2     1.802   .     S
O11    Zn10    1.803   1_655 S
O12    Zn10    1.803   .     S
O13    Zn4     1.803   .     S
O14    Zn4     1.802   .     S
O15    Zn9     1.802   1_655 S
O16    Zn9     1.802   .     S
Ni2    N9      1.895   1_455 S
C65    C66     1.406   .     A
C65    C70     1.396   .     A
C65    H17     1.083   .     S
C66    C67     1.427   .     A
C66    O17     1.395   .     S
C67    C68     1.406   .     A
C67    O18     1.395   .     S
C68    C69     1.396   .     A
C68    H18     1.083   .     S
C69    C70     1.361   .     A
C69    C72     1.377   .     A
C70    C71     1.377   .     A
C71    N17     1.359   .     A
C71    N24     1.339   .     A
N17    C72     1.359   .     A
N17    Ni3     1.895   1_565 S
C72    N18     1.338   .     A
N18    C73     1.338   .     A
C73    N19     1.359   1_565 A
C73    C76     1.377   .     A
N19    C73     1.359   1_545 A
N19    C74     1.359   .     A
N19    Ni3     1.894   .     S
C74    C75     1.377   .     A
C74    N21     1.338   .     A
C75    C76     1.361   1_545 A
C75    C84     1.396   .     A
C76    C75     1.361   1_565 A
C76    C81     1.396   .     A
N20    C77     1.360   .     A
N20    C80     1.359   .     A
N20    Ni3     1.895   .     S
C77    N21     1.338   .     A
C77    C78     1.377   .     A
C78    C79     1.361   .     A
C78    C88     1.396   .     A
C79    C80     1.377   .     A
C79    C85     1.396   .     A
C80    N23     1.339   .     A
C81    C82     1.406   .     A
C81    H19     1.083   .     S
C82    C83     1.427   1_565 A
C82    O19     1.395   .     S
C83    C82     1.427   1_545 A
C83    C84     1.407   .     A
C83    O20     1.395   .     S
C84    H20     1.083   .     S
C85    C86     1.407   .     A
C85    H21     1.083   .     S
C86    C87     1.427   .     A
C86    O21     1.395   .     S
C87    C88     1.406   .     A
C87    O22     1.395   .     S
C88    H22     1.083   .     S
N22    C89     1.360   .     A
N22    C92     1.360   1_545 A
N22    Ni3     1.895   .     S
C89    N23     1.339   .     A
C89    C90     1.377   .     A
C90    C91     1.361   1_545 A
C90    C96     1.396   .     A
C91    C90     1.361   1_565 A
C91    C92     1.377   .     A
C91    C93     1.396   .     A
C92    N22     1.360   1_565 A
C92    N24     1.338   .     A
C93    C94     1.406   .     A
C93    H23     1.083   .     S
C94    C95     1.427   1_565 A
C94    O23     1.395   .     S
C95    C94     1.427   1_545 A
C95    C96     1.406   .     A
C95    O24     1.395   .     S
C96    H24     1.083   .     S
O17    Zn5     1.802   .     S
O18    Zn5     1.803   .     S
O19    Zn12    1.803   1_565 S
O20    Zn12    1.803   .     S
O21    Zn7     1.802   .     S
O22    Zn7     1.803   .     S
O23    Zn11    1.803   1_565 S
O24    Zn11    1.803   .     S
Ni3    N17     1.895   1_545 S
C97    C98     1.406   .     A
C97    C102    1.396   .     A
C97    H25     1.083   .     S
C98    C99     1.427   1_545 A
C98    O25     1.395   .     S
C99    C98     1.427   1_565 A
C99    C100    1.407   .     A
C99    O26     1.395   .     S
C100   C101    1.396   .     A
C100   H26     1.083   .     S
C101   C102    1.361   1_565 A
C101   C104    1.377   .     A
C102   C101    1.361   1_545 A
C102   C103    1.377   .     A
C103   N25     1.359   .     A
C103   N32     1.339   .     A
N25    C104    1.359   1_545 A
N25    Ni4     1.894   1_556 S
C104   N25     1.359   1_565 A
C104   N26     1.339   .     A
N26    C105    1.339   .     A
C105   N27     1.359   1_556 A
C105   C108    1.377   .     A
N27    C105    1.359   1_554 A
N27    C106    1.360   .     A
N27    Ni4     1.895   1_565 S
C106   C107    1.377   .     A
C106   N29     1.338   .     A
C107   C108    1.361   1_554 A
C107   C116    1.396   .     A
C108   C107    1.361   1_556 A
C108   C113    1.396   .     A
N28    C109    1.360   1_545 A
N28    C112    1.360   .     A
N28    Ni4     1.895   .     S
C109   N28     1.360   1_565 A
C109   N29     1.338   .     A
C109   C110    1.377   .     A
C110   C111    1.361   1_565 A
C110   C120    1.396   .     A
C111   C110    1.361   1_545 A
C111   C112    1.377   .     A
C111   C117    1.396   .     A
C112   N31     1.338   .     A
C113   C114    1.407   .     A
C113   H27     1.083   .     S
C114   C115    1.427   1_556 A
C114   O27     1.395   .     S
C115   C114    1.427   1_554 A
C115   C116    1.406   .     A
C115   O28     1.395   .     S
C116   H28     1.083   .     S
C117   C118    1.406   .     A
C117   H29     1.083   .     S
C118   C119    1.427   1_545 A
C118   O29     1.395   .     S
C119   C118    1.427   1_565 A
C119   C120    1.406   .     A
C119   O30     1.395   .     S
C120   H30     1.083   .     S
N30    C121    1.360   .     A
N30    C124    1.359   1_554 A
N30    Ni4     1.895   .     S
C121   N31     1.338   .     A
C121   C122    1.377   .     A
C122   C123    1.361   1_554 A
C122   C128    1.396   .     A
C123   C122    1.361   1_556 A
C123   C124    1.377   .     A
C123   C125    1.396   .     A
C124   N30     1.359   1_556 A
C124   N32     1.338   .     A
C125   C126    1.407   .     A
C125   H31     1.083   .     S
C126   C127    1.427   1_556 A
C126   O31     1.395   .     S
C127   C126    1.427   1_554 A
C127   C128    1.407   .     A
C127   O32     1.395   .     S
C128   H32     1.083   .     S
O25    Zn12    1.803   .     S
O26    Zn12    1.803   1_565 S
O27    Zn8     1.803   1_556 S
O28    Zn8     1.802   .     S
O29    Zn11    1.803   .     S
O30    Zn11    1.803   1_565 S
O31    Zn6     1.803   1_556 S
O32    Zn6     1.802   .     S
Ni4    N27     1.895   1_545 S
Ni4    N25     1.894   1_554 S
C129   C130    1.429   .     A
C129   C134    1.428   .     A
C129   C139    1.420   .     A
C130   C131    1.431   .     A
C130   C142    1.425   .     A
C131   C132    1.428   .     A
C131   C138    1.425   .     A
C132   C133    1.427   .     A
C132   C135    1.419   .     A
C133   C134    1.425   .     A
C133   C146    1.423   .     A
C134   C143    1.424   .     A
C135   C136    1.393   .     A
C135   H33     1.076   .     S
C136   C137    1.404   .     A
C136   C154    1.405   .     A
C137   C138    1.400   .     A
C137   C151    1.410   .     A
C138   H34     1.075   .     S
C139   C140    1.393   .     A
C139   H35     1.075   .     S
C140   C141    1.404   .     A
C140   C158    1.405   .     A
C141   C142    1.399   .     A
C141   C155    1.410   .     A
C142   H36     1.075   .     S
C143   C144    1.395   .     A
C143   H37     1.075   .     S
C144   C145    1.406   .     A
C144   C150    1.409   .     A
C145   C146    1.395   .     A
C145   C147    1.409   .     A
C146   H38     1.076   .     S
C147   C148    1.396   .     A
C147   H39     1.084   .     S
C148   C149    1.372   .     A
C148   O33     1.381   .     S
C149   C150    1.395   .     A
C149   O34     1.381   .     S
C150   H40     1.084   .     S
C151   C152    1.399   .     A
C151   H41     1.084   .     S
C152   C153    1.410   .     A
C152   O35     1.397   .     S
C153   C154    1.393   .     A
C153   O36     1.393   .     S
C154   H42     1.084   .     S
O33    Cu1     1.812   .     S
O34    Cu1     1.812   .     S
O35    Zn8     1.807   .     S
O36    Zn8     1.796   .     S
C155   C156    1.399   .     A
C155   H43     1.084   .     S
C156   C157    1.410   .     A
C156   O37     1.397   .     S
C157   C158    1.393   .     A
C157   O38     1.393   .     S
C158   H44     1.084   .     S
O37    Zn1     1.808   .     S
O38    Zn1     1.795   .     S
C159   C160    1.428   .     A
C159   C164    1.428   .     A
C159   C169    1.420   .     A
C160   C161    1.430   .     A
C160   C172    1.425   .     A
C161   C162    1.428   .     A
C161   C168    1.425   .     A
C162   C163    1.429   .     A
C162   C165    1.420   .     A
C163   C164    1.426   .     A
C163   C176    1.424   .     A
C164   C173    1.423   .     A
C165   C166    1.393   .     A
C165   H45     1.075   .     S
C166   C167    1.404   .     A
C166   C184    1.405   .     A
C167   C168    1.399   .     A
C167   C181    1.410   .     A
C168   H46     1.076   .     S
C169   C170    1.393   .     A
C169   H47     1.075   .     S
C170   C171    1.404   .     A
C170   C188    1.405   .     A
C171   C172    1.399   .     A
C171   C185    1.409   .     A
C172   H48     1.076   .     S
C173   C174    1.395   .     A
C173   H49     1.075   .     S
C174   C175    1.406   .     A
C174   C180    1.409   .     A
C175   C176    1.395   .     A
C175   C177    1.409   .     A
C176   H50     1.075   .     S
C177   C178    1.395   .     A
C177   H51     1.084   .     S
C178   C179    1.372   .     A
C178   O39     1.381   1_655 S
C179   C180    1.395   .     A
C179   O40     1.381   1_565 S
C180   H52     1.084   .     S
C181   C182    1.399   .     A
C181   H53     1.084   .     S
C182   C183    1.410   .     A
C182   O41     1.397   .     S
C183   C184    1.393   .     A
C183   O42     1.393   .     S
C184   H54     1.084   .     S
O39    C178    1.381   1_455 S
O39    Cu2     1.812   1_565 S
O40    C179    1.381   1_545 S
O40    Cu2     1.812   1_655 S
O41    Zn2     1.807   .     S
O42    Zn2     1.795   .     S
C185   C186    1.399   .     A
C185   H55     1.084   .     S
C186   C187    1.410   .     A
C186   O43     1.397   .     S
C187   C188    1.393   .     A
C187   O44     1.393   .     S
C188   H56     1.084   .     S
O43    Zn5     1.807   .     S
O44    Zn5     1.795   .     S
C189   C190    1.428   .     A
C189   C194    1.427   .     A
C189   C199    1.419   .     A
C190   C191    1.431   .     A
C190   C202    1.425   .     A
C191   C192    1.429   .     A
C191   C198    1.425   .     A
C192   C193    1.428   .     A
C192   C195    1.420   .     A
C193   C194    1.425   .     A
C193   C206    1.423   .     A
C194   C203    1.423   .     A
C195   C196    1.393   .     A
C195   H57     1.075   .     S
C196   C197    1.404   .     A
C196   C214    1.405   .     A
C197   C198    1.399   .     A
C197   C211    1.410   .     A
C198   H58     1.075   .     S
C199   C200    1.393   .     A
C199   H59     1.076   .     S
C200   C201    1.404   .     A
C200   C218    1.405   .     A
C201   C202    1.400   .     A
C201   C215    1.410   .     A
C202   H60     1.075   .     S
C203   C204    1.395   .     A
C203   H61     1.076   .     S
C204   C205    1.406   .     A
C204   C210    1.409   .     A
C205   C206    1.395   .     A
C205   C207    1.409   .     A
C206   H62     1.075   .     S
C207   C208    1.395   .     A
C207   H63     1.084   .     S
C208   C209    1.372   .     A
C208   O45     1.381   .     S
C209   C210    1.395   .     A
C209   O46     1.381   .     S
C210   H64     1.084   .     S
C211   C212    1.399   .     A
C211   H65     1.084   .     S
C212   C213    1.410   .     A
C212   O47     1.397   .     S
C213   C214    1.393   .     A
C213   O48     1.393   .     S
C214   H66     1.084   .     S
O45    Cu1     1.812   .     S
O46    Cu1     1.812   .     S
O47    Zn3     1.808   .     S
O48    Zn3     1.795   .     S
C215   C216    1.399   .     A
C215   H67     1.084   .     S
C216   C217    1.410   .     A
C216   O49     1.397   .     S
C217   C218    1.393   .     A
C217   O50     1.393   .     S
C218   H68     1.084   .     S
O49    Zn6     1.807   .     S
O50    Zn6     1.796   .     S
C219   C220    1.428   .     A
C219   C224    1.429   .     A
C219   C229    1.421   .     A
C220   C221    1.430   .     A
C220   C232    1.425   .     A
C221   C222    1.428   .     A
C221   C228    1.425   .     A
C222   C223    1.428   .     A
C222   C225    1.421   .     A
C223   C224    1.427   .     A
C223   C236    1.424   .     A
C224   C233    1.424   .     A
C225   C226    1.394   .     A
C225   H69     1.075   .     S
C226   C227    1.404   .     A
C226   C244    1.405   .     A
C227   C228    1.399   .     A
C227   C241    1.409   .     A
C228   H70     1.076   .     S
C229   C230    1.393   .     A
C229   H71     1.074   .     S
C230   C231    1.403   .     A
C230   C248    1.405   .     A
C231   C232    1.399   .     A
C231   C245    1.410   .     A
C232   H72     1.076   .     S
C233   C234    1.395   .     A
C233   H73     1.074   .     S
C234   C235    1.405   .     A
C234   C240    1.409   .     A
C235   C236    1.394   .     A
C235   C237    1.409   .     A
C236   H74     1.075   .     S
C237   C238    1.395   .     A
C237   H75     1.084   .     S
C238   C239    1.372   .     A
C238   O51     1.381   1_545 S
C239   C240    1.395   .     A
C239   O52     1.381   1_455 S
C240   H76     1.084   .     S
C241   C242    1.399   .     A
C241   H77     1.084   .     S
C242   C243    1.410   .     A
C242   O53     1.397   .     S
C243   C244    1.393   .     A
C243   O54     1.393   .     S
C244   H78     1.084   .     S
O51    C238    1.381   1_565 S
O51    Cu2     1.812   1_565 S
O52    C239    1.381   1_655 S
O52    Cu2     1.811   1_655 S
O53    Zn7     1.807   .     S
O54    Zn7     1.795   .     S
C245   C246    1.399   .     A
C245   H79     1.084   .     S
C246   C247    1.410   .     A
C246   O55     1.397   .     S
C247   C248    1.393   .     A
C247   O56     1.393   .     S
C248   H80     1.084   .     S
O55    Zn4     1.807   .     S
O56    Zn4     1.795   .     S
Cu2    O40     1.812   1_455 S
Cu2    O52     1.811   1_455 S
Cu2    O39     1.812   1_545 S
Cu2    O51     1.812   1_545 S
Zn1    O7      1.803   1_554 S
Zn3    O3      1.803   1_554 S
Zn6    O31     1.803   1_554 S
Zn8    O27     1.803   1_554 S
Zn9    O15     1.802   1_455 S
Zn9    O6      1.803   1_455 S
Zn10   O2      1.803   1_455 S
Zn10   O11     1.803   1_455 S
Zn11   O23     1.803   1_545 S
Zn11   O30     1.803   1_545 S
Zn12   O26     1.803   1_545 S
Zn12   O19     1.803   1_545 S
