data_tfn-TN_O-PcMN_O-Zntet
_audit_creation_date              2021-11-06
_audit_creation_method            'Materials Studio'
_symmetry_space_group_name_H-M    'P1'
_symmetry_Int_Tables_number       1
_symmetry_cell_setting            triclinic
loop_
_symmetry_equiv_pos_as_xyz
  x,y,z
_cell_length_a                    49.6815
_cell_length_b                    49.6724
_cell_length_c                    44.9709
_cell_angle_alpha                 90.1218
_cell_angle_beta                  90.0563
_cell_angle_gamma                 90.0997
loop_
_atom_site_label
_atom_site_type_symbol
_atom_site_fract_x
_atom_site_fract_y
_atom_site_fract_z
_atom_site_U_iso_or_equiv
_atom_site_adp_type
_atom_site_occupancy
C1     C     0.90141   0.46365   0.97151   0.00000  Uiso   1.00
C2     C     0.87837   0.45495   0.98712   0.00000  Uiso   1.00
C3     C     0.87859   0.45427   0.01895   0.00000  Uiso   1.00
C4     C     0.90182   0.46241   0.03470   0.00000  Uiso   1.00
C5     C     0.92400   0.47098   0.01827   0.00000  Uiso   1.00
C6     C     0.92381   0.47154   0.98807   0.00000  Uiso   1.00
C7     C     0.94862   0.48113   0.97949   0.00000  Uiso   1.00
N1     N     0.96459   0.48673   0.00328   0.00000  Uiso   1.00
C8     C     0.94892   0.48027   0.02698   0.00000  Uiso   1.00
N2     N     0.95634   0.48263   0.05548   0.00000  Uiso   1.00
C9     C     0.98049   0.49170   0.06414   0.00000  Uiso   1.00
N3     N     0.00047   0.49969   0.04549   0.00000  Uiso   1.00
C10    C     0.02064   0.50714   0.06423   0.00000  Uiso   1.00
C11    C     0.01347   0.50395   0.09358   0.00000  Uiso   1.00
C12    C     0.98794   0.49414   0.09353   0.00000  Uiso   1.00
N4     N     0.03577   0.51424   0.00344   0.00000  Uiso   1.00
C13    C     0.05175   0.51985   0.02722   0.00000  Uiso   1.00
N5     N     0.04466   0.51655   0.05568   0.00000  Uiso   1.00
C14    C     0.07655   0.52944   0.01864   0.00000  Uiso   1.00
C15    C     0.07637   0.52998   0.98844   0.00000  Uiso   1.00
C16    C     0.05146   0.52069   0.97973   0.00000  Uiso   1.00
C17    C     0.97404   0.48863   0.11975   0.00000  Uiso   1.00
C18    C     0.98733   0.49368   0.14696   0.00000  Uiso   1.00
C19    C     0.01424   0.50404   0.14701   0.00000  Uiso   1.00
C20    C     0.02748   0.50919   0.11985   0.00000  Uiso   1.00
C21    C     0.09856   0.53853   0.97200   0.00000  Uiso   1.00
C22    C     0.12178   0.54667   0.98775   0.00000  Uiso   1.00
C23    C     0.12200   0.54603   0.01958   0.00000  Uiso   1.00
C24    C     0.09895   0.53734   0.03520   0.00000  Uiso   1.00
N6     N    -0.00010   0.50128   0.96123   0.00000  Uiso   1.00
C25    C     0.01989   0.50925   0.94257   0.00000  Uiso   1.00
N7     N     0.04403   0.51832   0.95123   0.00000  Uiso   1.00
C26    C     0.01244   0.50682   0.91318   0.00000  Uiso   1.00
C27    C     0.98690   0.49700   0.91313   0.00000  Uiso   1.00
C28    C     0.97973   0.49383   0.94248   0.00000  Uiso   1.00
C29    C     0.97290   0.49176   0.88687   0.00000  Uiso   1.00
C30    C     0.98614   0.49691   0.85971   0.00000  Uiso   1.00
C31    C     0.01304   0.50727   0.85975   0.00000  Uiso   1.00
C32    C     0.02634   0.51232   0.88696   0.00000  Uiso   1.00
N8     N     0.95571   0.48442   0.95104   0.00000  Uiso   1.00
H1     H     0.90180   0.46440   0.94743   0.00000  Uiso   1.00
H2     H     0.90250   0.46221   0.05878   0.00000  Uiso   1.00
H3     H     0.95366   0.48084   0.11907   0.00000  Uiso   1.00
H4     H     0.04782   0.51708   0.11923   0.00000  Uiso   1.00
H5     H     0.09787   0.53871   0.94792   0.00000  Uiso   1.00
H6     H     0.09857   0.53662   0.05927   0.00000  Uiso   1.00
H7     H     0.95256   0.48387   0.88749   0.00000  Uiso   1.00
H8     H     0.04672   0.52009   0.88765   0.00000  Uiso   1.00
C33    C     0.97311   0.49180   0.83258   0.00000  Uiso   1.00
C34    C     0.98639   0.49675   0.80576   0.00000  Uiso   1.00
C35    C     0.01291   0.50701   0.80581   0.00000  Uiso   1.00
C36    C     0.02610   0.51224   0.83266   0.00000  Uiso   1.00
C37    C     0.85511   0.44715   0.97163   0.00000  Uiso   1.00
C38    C     0.83224   0.43889   0.98721   0.00000  Uiso   1.00
C39    C     0.83251   0.43806   0.01860   0.00000  Uiso   1.00
C40    C     0.85557   0.44569   0.03430   0.00000  Uiso   1.00
C41    C     0.97428   0.48871   0.17406   0.00000  Uiso   1.00
C42    C     0.98747   0.49394   0.20091   0.00000  Uiso   1.00
C43    C     0.01400   0.50418   0.20095   0.00000  Uiso   1.00
C44    C     0.02727   0.50914   0.17414   0.00000  Uiso   1.00
C45    C     0.14481   0.55521   0.97238   0.00000  Uiso   1.00
C46    C     0.16788   0.56285   0.98808   0.00000  Uiso   1.00
C47    C     0.16813   0.56208   0.01947   0.00000  Uiso   1.00
C48    C     0.14526   0.55384   0.03506   0.00000  Uiso   1.00
H9     H     0.95276   0.48393   0.83217   0.00000  Uiso   1.00
O1     O     0.97358   0.49156   0.77872   0.00000  Uiso   1.00
O2     O     0.02585   0.51180   0.77880   0.00000  Uiso   1.00
H10    H     0.04647   0.52008   0.83232   0.00000  Uiso   1.00
H11    H     0.85459   0.44769   0.94755   0.00000  Uiso   1.00
O3     O     0.80886   0.43168   0.97192   0.00000  Uiso   1.00
O4     O     0.80943   0.42988   0.03378   0.00000  Uiso   1.00
H12    H     0.85540   0.44511   0.05839   0.00000  Uiso   1.00
H13    H     0.95391   0.48088   0.17440   0.00000  Uiso   1.00
O5     O     0.97453   0.48916   0.22792   0.00000  Uiso   1.00
O6     O     0.02682   0.50936   0.22799   0.00000  Uiso   1.00
H14    H     0.04763   0.51700   0.17454   0.00000  Uiso   1.00
H15    H     0.14499   0.55576   0.94830   0.00000  Uiso   1.00
O7     O     0.19096   0.57099   0.97289   0.00000  Uiso   1.00
O8     O     0.19151   0.56932   0.03476   0.00000  Uiso   1.00
H16    H     0.14577   0.55334   0.05915   0.00000  Uiso   1.00
Ni1    Ni    0.00018   0.50049   0.00336   0.00000  Uiso   1.00
C49    C     0.96245   0.59898   0.53471   0.00000  Uiso   1.00
C50    C     0.95371   0.62192   0.51896   0.00000  Uiso   1.00
C51    C     0.95298   0.62153   0.48714   0.00000  Uiso   1.00
C52    C     0.96131   0.59832   0.47152   0.00000  Uiso   1.00
C53    C     0.97003   0.57628   0.48807   0.00000  Uiso   1.00
C54    C     0.97045   0.57655   0.51827   0.00000  Uiso   1.00
C55    C     0.98016   0.55184   0.52697   0.00000  Uiso   1.00
N9     N     0.98607   0.53590   0.50327   0.00000  Uiso   1.00
C56    C     0.97965   0.55147   0.47948   0.00000  Uiso   1.00
N10    N     0.98255   0.54414   0.45101   0.00000  Uiso   1.00
C57    C     0.99212   0.52017   0.44246   0.00000  Uiso   1.00
N11    N    -0.00000   0.50025   0.46122   0.00000  Uiso   1.00
C58    C     0.00779   0.48015   0.44258   0.00000  Uiso   1.00
C59    C     0.00496   0.48733   0.41319   0.00000  Uiso   1.00
C60    C     0.99502   0.51279   0.41310   0.00000  Uiso   1.00
N12    N     0.01434   0.46506   0.50345   0.00000  Uiso   1.00
C61    C     0.02018   0.44909   0.47975   0.00000  Uiso   1.00
N13    N     0.01715   0.45617   0.45125   0.00000  Uiso   1.00
C62    C     0.02990   0.42438   0.48845   0.00000  Uiso   1.00
C63    C     0.03043   0.42469   0.51865   0.00000  Uiso   1.00
C64    C     0.02083   0.44951   0.52724   0.00000  Uiso   1.00
C65    C     0.98972   0.52664   0.38680   0.00000  Uiso   1.00
C66    C     0.99501   0.51334   0.35966   0.00000  Uiso   1.00
C67    C     0.00544   0.48649   0.35977   0.00000  Uiso   1.00
C68    C     0.01049   0.47335   0.38700   0.00000  Uiso   1.00
C69    C     0.03922   0.40267   0.53520   0.00000  Uiso   1.00
C70    C     0.04751   0.37945   0.51957   0.00000  Uiso   1.00
C71    C     0.04666   0.37902   0.48775   0.00000  Uiso   1.00
C72    C     0.03785   0.40194   0.47201   0.00000  Uiso   1.00
N14    N     0.00041   0.50071   0.54550   0.00000  Uiso   1.00
C73    C     0.00836   0.48080   0.56426   0.00000  Uiso   1.00
N15    N     0.01795   0.45685   0.55571   0.00000  Uiso   1.00
C74    C     0.00543   0.48817   0.59361   0.00000  Uiso   1.00
C75    C     0.99541   0.51360   0.59353   0.00000  Uiso   1.00
C76    C     0.99256   0.52077   0.56414   0.00000  Uiso   1.00
C77    C     0.98985   0.52758   0.61972   0.00000  Uiso   1.00
C78    C     0.99493   0.51445   0.64695   0.00000  Uiso   1.00
C79    C     0.00543   0.48763   0.64706   0.00000  Uiso   1.00
C80    C     0.01076   0.47434   0.61992   0.00000  Uiso   1.00
N16    N     0.98316   0.54474   0.55547   0.00000  Uiso   1.00
H17    H     0.96322   0.59872   0.55879   0.00000  Uiso   1.00
H18    H     0.96114   0.59754   0.44744   0.00000  Uiso   1.00
H19    H     0.98183   0.54696   0.38738   0.00000  Uiso   1.00
H20    H     0.01842   0.45305   0.38772   0.00000  Uiso   1.00
H21    H     0.03948   0.40349   0.55927   0.00000  Uiso   1.00
H22    H     0.03701   0.40217   0.44793   0.00000  Uiso   1.00
H23    H     0.98186   0.54785   0.61899   0.00000  Uiso   1.00
H24    H     0.01870   0.45404   0.61934   0.00000  Uiso   1.00
C81    C     0.98975   0.52756   0.67399   0.00000  Uiso   1.00
C82    C     0.99479   0.51448   0.70088   0.00000  Uiso   1.00
C83    C     0.00506   0.48799   0.70101   0.00000  Uiso   1.00
C84    C     0.01033   0.47470   0.67424   0.00000  Uiso   1.00
C85    C     0.94597   0.64527   0.53432   0.00000  Uiso   1.00
C86    C     0.93760   0.66801   0.51861   0.00000  Uiso   1.00
C87    C     0.93653   0.66751   0.48723   0.00000  Uiso   1.00
C88    C     0.94418   0.64439   0.47166   0.00000  Uiso   1.00
C89    C     0.99012   0.52627   0.33248   0.00000  Uiso   1.00
C90    C     0.99535   0.51297   0.30570   0.00000  Uiso   1.00
C91    C     0.00558   0.48646   0.30583   0.00000  Uiso   1.00
C92    C     0.01060   0.47337   0.33272   0.00000  Uiso   1.00
C93    C     0.05639   0.35662   0.53505   0.00000  Uiso   1.00
C94    C     0.06400   0.33349   0.51947   0.00000  Uiso   1.00
C95    C     0.06280   0.33294   0.48810   0.00000  Uiso   1.00
C96    C     0.05435   0.35565   0.47240   0.00000  Uiso   1.00
H25    H     0.98183   0.54787   0.67427   0.00000  Uiso   1.00
O9     O     0.98973   0.52747   0.72784   0.00000  Uiso   1.00
O10    O     0.00993   0.47524   0.72811   0.00000  Uiso   1.00
H26    H     0.01823   0.45438   0.67470   0.00000  Uiso   1.00
H27    H     0.94666   0.64597   0.55839   0.00000  Uiso   1.00
O11    O     0.93058   0.69152   0.53375   0.00000  Uiso   1.00
O12    O     0.92815   0.69044   0.47193   0.00000  Uiso   1.00
H28    H     0.94347   0.64439   0.44757   0.00000  Uiso   1.00
H29    H     0.98226   0.54661   0.33202   0.00000  Uiso   1.00
O13    O     0.99049   0.52572   0.27861   0.00000  Uiso   1.00
O14    O     0.01063   0.47346   0.27888   0.00000  Uiso   1.00
H30    H     0.01847   0.45304   0.33244   0.00000  Uiso   1.00
H31    H     0.05720   0.35665   0.55913   0.00000  Uiso   1.00
O15    O     0.07245   0.31058   0.53477   0.00000  Uiso   1.00
O16    O     0.06977   0.30941   0.47297   0.00000  Uiso   1.00
H32    H     0.05357   0.35493   0.44833   0.00000  Uiso   1.00
Ni2    Ni    0.00020   0.50048   0.50336   0.00000  Uiso   1.00
C97    C     0.40227   0.03944   0.47200   0.00000  Uiso   1.00
C98    C     0.37914   0.04779   0.48770   0.00000  Uiso   1.00
C99    C     0.37891   0.04709   0.51952   0.00000  Uiso   1.00
C100   C     0.40190   0.03830   0.53519   0.00000  Uiso   1.00
C101   C     0.42424   0.03025   0.51868   0.00000  Uiso   1.00
C102   C     0.42437   0.03072   0.48848   0.00000  Uiso   1.00
C103   C     0.44913   0.02111   0.47979   0.00000  Uiso   1.00
N17    N     0.46480   0.01463   0.50350   0.00000  Uiso   1.00
C104   C     0.44898   0.02050   0.52728   0.00000  Uiso   1.00
N18    N     0.45619   0.01739   0.55575   0.00000  Uiso   1.00
C105   C     0.48020   0.00796   0.56430   0.00000  Uiso   1.00
N19    N     0.50019   0.00021   0.54553   0.00000  Uiso   1.00
C106   C     0.52021   0.99228   0.56416   0.00000  Uiso   1.00
C107   C     0.51299   0.99507   0.59354   0.00000  Uiso   1.00
C108   C     0.48753   0.00501   0.59366   0.00000  Uiso   1.00
N20    N     0.53562   0.98633   0.50328   0.00000  Uiso   1.00
C109   C     0.55133   0.97994   0.52699   0.00000  Uiso   1.00
N21    N     0.54414   0.98278   0.55549   0.00000  Uiso   1.00
C110   C     0.57608   0.97031   0.51831   0.00000  Uiso   1.00
C111   C     0.57617   0.97065   0.48810   0.00000  Uiso   1.00
C112   C     0.55141   0.98038   0.47950   0.00000  Uiso   1.00
C113   C     0.47373   0.01040   0.61999   0.00000  Uiso   1.00
C114   C     0.48707   0.00522   0.64711   0.00000  Uiso   1.00
C115   C     0.51392   0.99480   0.64695   0.00000  Uiso   1.00
C116   C     0.52701   0.98964   0.61971   0.00000  Uiso   1.00
C117   C     0.59848   0.96254   0.47159   0.00000  Uiso   1.00
C118   C     0.62150   0.95382   0.48726   0.00000  Uiso   1.00
C119   C     0.62132   0.95326   0.51909   0.00000  Uiso   1.00
C120   C     0.59821   0.96166   0.53478   0.00000  Uiso   1.00
N22    N     0.50023   0.00075   0.46125   0.00000  Uiso   1.00
C121   C     0.52020   0.99292   0.44248   0.00000  Uiso   1.00
N23    N     0.54418   0.98344   0.45103   0.00000  Uiso   1.00
C122   C     0.51287   0.99589   0.41312   0.00000  Uiso   1.00
C123   C     0.48745   0.00592   0.41323   0.00000  Uiso   1.00
C124   C     0.48025   0.00874   0.44262   0.00000  Uiso   1.00
C125   C     0.47344   0.01138   0.38707   0.00000  Uiso   1.00
C126   C     0.48650   0.00617   0.35982   0.00000  Uiso   1.00
C127   C     0.51332   0.99566   0.35967   0.00000  Uiso   1.00
C128   C     0.52666   0.99045   0.38679   0.00000  Uiso   1.00
N24    N     0.45633   0.01830   0.45129   0.00000  Uiso   1.00
H33    H     0.40294   0.03960   0.44792   0.00000  Uiso   1.00
H34    H     0.40227   0.03755   0.55927   0.00000  Uiso   1.00
H35    H     0.45342   0.01833   0.61945   0.00000  Uiso   1.00
H36    H     0.54732   0.98176   0.61894   0.00000  Uiso   1.00
H37    H     0.59807   0.96318   0.44751   0.00000  Uiso   1.00
H38    H     0.59758   0.96161   0.55887   0.00000  Uiso   1.00
H39    H     0.45315   0.01933   0.38784   0.00000  Uiso   1.00
H40    H     0.54693   0.98246   0.38733   0.00000  Uiso   1.00
C129   C     0.47334   0.01121   0.33281   0.00000  Uiso   1.00
C130   C     0.48636   0.00604   0.30589   0.00000  Uiso   1.00
C131   C     0.51284   0.99575   0.30571   0.00000  Uiso   1.00
C132   C     0.52618   0.99060   0.33246   0.00000  Uiso   1.00
C133   C     0.35622   0.05657   0.47229   0.00000  Uiso   1.00
C134   C     0.33318   0.06427   0.48794   0.00000  Uiso   1.00
C135   C     0.33285   0.06328   0.51931   0.00000  Uiso   1.00
C136   C     0.35565   0.05490   0.53495   0.00000  Uiso   1.00
C137   C     0.47420   0.01025   0.67432   0.00000  Uiso   1.00
C138   C     0.48756   0.00513   0.70107   0.00000  Uiso   1.00
C139   C     0.51406   0.99490   0.70089   0.00000  Uiso   1.00
C140   C     0.52710   0.98978   0.67397   0.00000  Uiso   1.00
C141   C     0.64473   0.94594   0.47183   0.00000  Uiso   1.00
C142   C     0.66756   0.93764   0.48748   0.00000  Uiso   1.00
C143   C     0.66729   0.93681   0.51886   0.00000  Uiso   1.00
C144   C     0.64427   0.94457   0.53450   0.00000  Uiso   1.00
H41    H     0.45302   0.01911   0.33257   0.00000  Uiso   1.00
O17    O     0.47332   0.01100   0.27897   0.00000  Uiso   1.00
O18    O     0.52553   0.99079   0.27859   0.00000  Uiso   1.00
H42    H     0.54649   0.98269   0.33195   0.00000  Uiso   1.00
H43    H     0.35609   0.05723   0.44820   0.00000  Uiso   1.00
O19    O     0.31017   0.07259   0.47270   0.00000  Uiso   1.00
O20    O     0.30944   0.07039   0.53453   0.00000  Uiso   1.00
H44    H     0.35508   0.05426   0.55903   0.00000  Uiso   1.00
H45    H     0.45387   0.01812   0.67483   0.00000  Uiso   1.00
O21    O     0.47486   0.01008   0.72820   0.00000  Uiso   1.00
O22    O     0.52711   0.98995   0.72781   0.00000  Uiso   1.00
H46    H     0.54744   0.98193   0.67421   0.00000  Uiso   1.00
H47    H     0.64526   0.94646   0.44775   0.00000  Uiso   1.00
O23    O     0.69095   0.93047   0.47226   0.00000  Uiso   1.00
O24    O     0.69032   0.92857   0.53410   0.00000  Uiso   1.00
H48    H     0.64444   0.94402   0.55859   0.00000  Uiso   1.00
Ni3    Ni    0.50021   0.00048   0.50339   0.00000  Uiso   1.00
C145   C     0.46332   0.90166   0.97152   0.00000  Uiso   1.00
C146   C     0.45463   0.87863   0.98714   0.00000  Uiso   1.00
C147   C     0.45400   0.87885   0.01897   0.00000  Uiso   1.00
C148   C     0.46215   0.90208   0.03472   0.00000  Uiso   1.00
C149   C     0.47070   0.92426   0.01828   0.00000  Uiso   1.00
C150   C     0.47123   0.92407   0.98808   0.00000  Uiso   1.00
C151   C     0.48082   0.94888   0.97951   0.00000  Uiso   1.00
N25    N     0.48645   0.96486   0.00330   0.00000  Uiso   1.00
C152   C     0.48000   0.94918   0.02700   0.00000  Uiso   1.00
N26    N     0.48238   0.95661   0.05550   0.00000  Uiso   1.00
C153   C     0.49145   0.98077   0.06418   0.00000  Uiso   1.00
N27    N     0.49942   0.00075   0.04553   0.00000  Uiso   1.00
C154   C     0.50686   0.02093   0.06428   0.00000  Uiso   1.00
C155   C     0.50370   0.01377   0.09362   0.00000  Uiso   1.00
C156   C     0.49389   0.98822   0.09356   0.00000  Uiso   1.00
N28    N     0.51396   0.03605   0.00349   0.00000  Uiso   1.00
C157   C     0.51956   0.05204   0.02727   0.00000  Uiso   1.00
N29    N     0.51626   0.04496   0.05573   0.00000  Uiso   1.00
C158   C     0.52915   0.07684   0.01870   0.00000  Uiso   1.00
C159   C     0.52973   0.07663   0.98850   0.00000  Uiso   1.00
C160   C     0.52043   0.05171   0.97979   0.00000  Uiso   1.00
C161   C     0.48840   0.97433   0.11978   0.00000  Uiso   1.00
C162   C     0.49345   0.98762   0.14700   0.00000  Uiso   1.00
C163   C     0.50381   0.01454   0.14705   0.00000  Uiso   1.00
C164   C     0.50894   0.02778   0.11990   0.00000  Uiso   1.00
C165   C     0.53831   0.09881   0.97207   0.00000  Uiso   1.00
C166   C     0.54646   0.12204   0.98783   0.00000  Uiso   1.00
C167   C     0.54576   0.12229   0.01965   0.00000  Uiso   1.00
C168   C     0.53704   0.09926   0.03527   0.00000  Uiso   1.00
N30    N     0.50100   0.00016   0.96126   0.00000  Uiso   1.00
C169   C     0.50899   0.02013   0.94261   0.00000  Uiso   1.00
N31    N     0.51807   0.04428   0.95128   0.00000  Uiso   1.00
C170   C     0.50655   0.01268   0.91322   0.00000  Uiso   1.00
C171   C     0.49672   0.98714   0.91316   0.00000  Uiso   1.00
C172   C     0.49354   0.97998   0.94251   0.00000  Uiso   1.00
C173   C     0.49147   0.97313   0.88689   0.00000  Uiso   1.00
C174   C     0.49662   0.98636   0.85973   0.00000  Uiso   1.00
C175   C     0.50699   0.01327   0.85979   0.00000  Uiso   1.00
C176   C     0.51204   0.02657   0.88700   0.00000  Uiso   1.00
N32    N     0.48412   0.95596   0.95105   0.00000  Uiso   1.00
H49    H     0.46403   0.90204   0.94745   0.00000  Uiso   1.00
H50    H     0.46198   0.90278   0.05880   0.00000  Uiso   1.00
H51    H     0.48062   0.95394   0.11908   0.00000  Uiso   1.00
H52    H     0.51683   0.04812   0.11929   0.00000  Uiso   1.00
H53    H     0.53854   0.09810   0.94799   0.00000  Uiso   1.00
H54    H     0.53628   0.09890   0.05934   0.00000  Uiso   1.00
H55    H     0.48357   0.95279   0.88750   0.00000  Uiso   1.00
H56    H     0.51983   0.04695   0.88770   0.00000  Uiso   1.00
C177   C     0.49151   0.97333   0.83260   0.00000  Uiso   1.00
C178   C     0.49645   0.98660   0.80579   0.00000  Uiso   1.00
C179   C     0.50668   0.01314   0.80584   0.00000  Uiso   1.00
C180   C     0.51193   0.02633   0.83270   0.00000  Uiso   1.00
C181   C     0.44680   0.85536   0.97165   0.00000  Uiso   1.00
C182   C     0.43855   0.83250   0.98723   0.00000  Uiso   1.00
C183   C     0.43779   0.83276   0.01862   0.00000  Uiso   1.00
C184   C     0.44545   0.85583   0.03433   0.00000  Uiso   1.00
C185   C     0.48849   0.97457   0.17408   0.00000  Uiso   1.00
C186   C     0.49374   0.98776   0.20094   0.00000  Uiso   1.00
C187   C     0.50399   0.01429   0.20099   0.00000  Uiso   1.00
C188   C     0.50892   0.02756   0.17419   0.00000  Uiso   1.00
C189   C     0.55507   0.14505   0.97247   0.00000  Uiso   1.00
C190   C     0.56270   0.16813   0.98817   0.00000  Uiso   1.00
C191   C     0.56184   0.16842   0.01956   0.00000  Uiso   1.00
C192   C     0.55355   0.14558   0.03514   0.00000  Uiso   1.00
H57    H     0.48364   0.95297   0.83219   0.00000  Uiso   1.00
O25    O     0.49125   0.97378   0.77874   0.00000  Uiso   1.00
O26    O     0.51144   0.02608   0.77884   0.00000  Uiso   1.00
H58    H     0.51976   0.04670   0.83237   0.00000  Uiso   1.00
H59    H     0.44729   0.85483   0.94756   0.00000  Uiso   1.00
O27    O     0.43129   0.80911   0.97195   0.00000  Uiso   1.00
O28    O     0.42964   0.80968   0.03381   0.00000  Uiso   1.00
H60    H     0.44491   0.85566   0.05842   0.00000  Uiso   1.00
H61    H     0.48066   0.95420   0.17442   0.00000  Uiso   1.00
O29    O     0.48894   0.97483   0.22794   0.00000  Uiso   1.00
O30    O     0.50919   0.02711   0.22804   0.00000  Uiso   1.00
H62    H     0.51679   0.04792   0.17460   0.00000  Uiso   1.00
H63    H     0.55567   0.14519   0.94838   0.00000  Uiso   1.00
O31    O     0.57090   0.19119   0.97299   0.00000  Uiso   1.00
O32    O     0.56903   0.19183   0.03485   0.00000  Uiso   1.00
H64    H     0.55300   0.14612   0.05923   0.00000  Uiso   1.00
Ni4    Ni    0.50020   0.00045   0.00339   0.00000  Uiso   1.00
C193   C     0.35745   0.60261   0.00439   0.00000  Uiso   1.00
C194   C     0.34990   0.63033   0.00392   0.00000  Uiso   1.00
C195   C     0.37028   0.65071   0.00280   0.00000  Uiso   1.00
C196   C     0.39799   0.64316   0.00230   0.00000  Uiso   1.00
C197   C     0.40530   0.61544   0.00165   0.00000  Uiso   1.00
C198   C     0.38516   0.59530   0.00502   0.00000  Uiso   1.00
C199   C     0.41786   0.66369   0.00363   0.00000  Uiso   1.00
C200   C     0.41107   0.69091   0.00323   0.00000  Uiso   1.00
C201   C     0.38386   0.69848   0.00203   0.00000  Uiso   1.00
C202   C     0.36388   0.67862   0.00185   0.00000  Uiso   1.00
C203   C     0.33692   0.58274   0.00305   0.00000  Uiso   1.00
C204   C     0.30970   0.58953   0.00347   0.00000  Uiso   1.00
C205   C     0.30214   0.61674   0.00470   0.00000  Uiso   1.00
C206   C     0.32200   0.63673   0.00490   0.00000  Uiso   1.00
C207   C     0.39344   0.56821   0.00925   0.00000  Uiso   1.00
C208   C     0.42038   0.56064   0.00670   0.00000  Uiso   1.00
C209   C     0.43996   0.58023  -0.00006   0.00000  Uiso   1.00
C210   C     0.43238   0.60716  -0.00261   0.00000  Uiso   1.00
C211   C     0.46702   0.57253  -0.00367   0.00000  Uiso   1.00
C212   C     0.47409   0.54556  -0.00014   0.00000  Uiso   1.00
C213   C     0.45506   0.52652   0.00680   0.00000  Uiso   1.00
C214   C     0.42808   0.53358   0.01031   0.00000  Uiso   1.00
C215   C     0.37698   0.72596   0.00148   0.00000  Uiso   1.00
C216   C     0.39713   0.74562   0.00217   0.00000  Uiso   1.00
C217   C     0.42442   0.73793   0.00338   0.00000  Uiso   1.00
C218   C     0.43129   0.71073   0.00399   0.00000  Uiso   1.00
H65    H     0.43895   0.65918   0.00601   0.00000  Uiso   1.00
H66    H     0.34351   0.68582   0.00078   0.00000  Uiso   1.00
H67    H     0.34143   0.56164   0.00065   0.00000  Uiso   1.00
H68    H     0.31480   0.65710   0.00600   0.00000  Uiso   1.00
H69    H     0.37946   0.55255   0.01533   0.00000  Uiso   1.00
H70    H     0.44804   0.62114  -0.00869   0.00000  Uiso   1.00
H71    H     0.48243   0.58722  -0.00893   0.00000  Uiso   1.00
O33    O     0.50015   0.53641  -0.00319   0.00000  Uiso   1.00
O34    O     0.46421   0.50046   0.00985   0.00000  Uiso   1.00
H72    H     0.41340   0.51816   0.01558   0.00000  Uiso   1.00
H73    H     0.35608   0.73216   0.00062   0.00000  Uiso   1.00
O35    O     0.39054   0.77293   0.00175   0.00000  Uiso   1.00
O36    O     0.44442   0.75765   0.00392   0.00000  Uiso   1.00
H74    H     0.45235   0.70515   0.00492   0.00000  Uiso   1.00
C219   C     0.27466   0.62363   0.00528   0.00000  Uiso   1.00
C220   C     0.25500   0.60348   0.00456   0.00000  Uiso   1.00
C221   C     0.26269   0.57618   0.00330   0.00000  Uiso   1.00
C222   C     0.28989   0.56931   0.00268   0.00000  Uiso   1.00
H75    H     0.26847   0.64453   0.00617   0.00000  Uiso   1.00
O37    O     0.22770   0.61007   0.00500   0.00000  Uiso   1.00
O38    O     0.24297   0.55618   0.00273   0.00000  Uiso   1.00
H76    H     0.29547   0.54824   0.00171   0.00000  Uiso   1.00
C223   C     0.85710   0.89794   0.50248   0.00000  Uiso   1.00
C224   C     0.84955   0.87020   0.50255   0.00000  Uiso   1.00
C225   C     0.86989   0.84986   0.50329   0.00000  Uiso   1.00
C226   C     0.89762   0.85742   0.50316   0.00000  Uiso   1.00
C227   C     0.90503   0.88516   0.50401   0.00000  Uiso   1.00
C228   C     0.88484   0.90535   0.50168   0.00000  Uiso   1.00
C229   C     0.91737   0.83685   0.50124   0.00000  Uiso   1.00
C230   C     0.91049   0.80962   0.50187   0.00000  Uiso   1.00
C231   C     0.88330   0.80207   0.50381   0.00000  Uiso   1.00
C232   C     0.86342   0.82195   0.50452   0.00000  Uiso   1.00
C233   C     0.83652   0.91770   0.50419   0.00000  Uiso   1.00
C234   C     0.80929   0.91078   0.50370   0.00000  Uiso   1.00
C235   C     0.80176   0.88355   0.50207   0.00000  Uiso   1.00
C236   C     0.82165   0.86368   0.50147   0.00000  Uiso   1.00
C237   C     0.89311   0.93258   0.49825   0.00000  Uiso   1.00
C238   C     0.92013   0.94016   0.50033   0.00000  Uiso   1.00
C239   C     0.93985   0.92041   0.50564   0.00000  Uiso   1.00
C240   C     0.93226   0.89340   0.50757   0.00000  Uiso   1.00
C241   C     0.96705   0.92806   0.50851   0.00000  Uiso   1.00
C242   C     0.97410   0.95516   0.50584   0.00000  Uiso   1.00
C243   C     0.95490   0.97439   0.50049   0.00000  Uiso   1.00
C244   C     0.92780   0.96736   0.49764   0.00000  Uiso   1.00
C245   C     0.87629   0.77460   0.50464   0.00000  Uiso   1.00
C246   C     0.89632   0.75490   0.50355   0.00000  Uiso   1.00
C247   C     0.92361   0.76255   0.50174   0.00000  Uiso   1.00
C248   C     0.93060   0.78976   0.50077   0.00000  Uiso   1.00
H77    H     0.93842   0.84135   0.49829   0.00000  Uiso   1.00
H78    H     0.84306   0.81478   0.50643   0.00000  Uiso   1.00
H79    H     0.84098   0.93879   0.50685   0.00000  Uiso   1.00
H80    H     0.81448   0.84330   0.49978   0.00000  Uiso   1.00
H81    H     0.87906   0.94842   0.49319   0.00000  Uiso   1.00
H82    H     0.94806   0.87932   0.51269   0.00000  Uiso   1.00
H83    H     0.98259   0.91322   0.51256   0.00000  Uiso   1.00
O39    O     0.00030   0.96427   0.50826   0.00000  Uiso   1.00
O40    O     0.96403   0.00059   0.49829   0.00000  Uiso   1.00
H84    H     0.91299   0.98292   0.49360   0.00000  Uiso   1.00
H85    H     0.85539   0.76844   0.50604   0.00000  Uiso   1.00
O41    O     0.88961   0.72760   0.50424   0.00000  Uiso   1.00
O42    O     0.94351   0.74278   0.50103   0.00000  Uiso   1.00
H86    H     0.95166   0.79531   0.49935   0.00000  Uiso   1.00
C249   C     0.77430   0.87651   0.50142   0.00000  Uiso   1.00
C250   C     0.75458   0.89653   0.50239   0.00000  Uiso   1.00
C251   C     0.76221   0.92385   0.50392   0.00000  Uiso   1.00
C252   C     0.78941   0.93088   0.50469   0.00000  Uiso   1.00
H87    H     0.76815   0.85558   0.50026   0.00000  Uiso   1.00
O43    O     0.72729   0.88978   0.50188   0.00000  Uiso   1.00
O44    O     0.74243   0.94373   0.50458   0.00000  Uiso   1.00
H88    H     0.79495   0.95197   0.50587   0.00000  Uiso   1.00
C253   C     0.60240   0.35776   0.00434   0.00000  Uiso   1.00
C254   C     0.63011   0.35022   0.00392   0.00000  Uiso   1.00
C255   C     0.65048   0.37060   0.00278   0.00000  Uiso   1.00
C256   C     0.64293   0.39832   0.00235   0.00000  Uiso   1.00
C257   C     0.61522   0.40563   0.00170   0.00000  Uiso   1.00
C258   C     0.59507   0.38547   0.00499   0.00000  Uiso   1.00
C259   C     0.66346   0.41819   0.00373   0.00000  Uiso   1.00
C260   C     0.69067   0.41140   0.00328   0.00000  Uiso   1.00
C261   C     0.69824   0.38419   0.00194   0.00000  Uiso   1.00
C262   C     0.67838   0.36420   0.00171   0.00000  Uiso   1.00
C263   C     0.58254   0.33722   0.00295   0.00000  Uiso   1.00
C264   C     0.58933   0.31001   0.00342   0.00000  Uiso   1.00
C265   C     0.61654   0.30245   0.00478   0.00000  Uiso   1.00
C266   C     0.63652   0.32232   0.00501   0.00000  Uiso   1.00
C267   C     0.56798   0.39374   0.00921   0.00000  Uiso   1.00
C268   C     0.56041   0.42068   0.00670   0.00000  Uiso   1.00
C269   C     0.57999   0.44028   0.00001   0.00000  Uiso   1.00
C270   C     0.60694   0.43272  -0.00250   0.00000  Uiso   1.00
C271   C     0.57229   0.46734  -0.00359   0.00000  Uiso   1.00
C272   C     0.54531   0.47439  -0.00010   0.00000  Uiso   1.00
C273   C     0.52628   0.45535   0.00681   0.00000  Uiso   1.00
C274   C     0.53334   0.42837   0.01030   0.00000  Uiso   1.00
C275   C     0.72572   0.37730   0.00130   0.00000  Uiso   1.00
C276   C     0.74538   0.39745   0.00207   0.00000  Uiso   1.00
C277   C     0.73769   0.42474   0.00341   0.00000  Uiso   1.00
C278   C     0.71049   0.43162   0.00410   0.00000  Uiso   1.00
H89    H     0.65894   0.43928   0.00619   0.00000  Uiso   1.00
H90    H     0.68556   0.34383   0.00047   0.00000  Uiso   1.00
H91    H     0.56145   0.34173   0.00047   0.00000  Uiso   1.00
H92    H     0.65689   0.31514   0.00626   0.00000  Uiso   1.00
H93    H     0.55231   0.37975   0.01523   0.00000  Uiso   1.00
H94    H     0.62092   0.44839  -0.00852   0.00000  Uiso   1.00
H95    H     0.58698   0.48277  -0.00882   0.00000  Uiso   1.00
O45    O     0.53615   0.50045  -0.00316   0.00000  Uiso   1.00
O46    O     0.50020   0.46449   0.00986   0.00000  Uiso   1.00
H96    H     0.51792   0.41368   0.01553   0.00000  Uiso   1.00
H97    H     0.73191   0.35641   0.00033   0.00000  Uiso   1.00
O47    O     0.77267   0.39086   0.00158   0.00000  Uiso   1.00
O48    O     0.75741   0.44475   0.00402   0.00000  Uiso   1.00
H98    H     0.70491   0.45268   0.00514   0.00000  Uiso   1.00
C279   C     0.62343   0.27497   0.00544   0.00000  Uiso   1.00
C280   C     0.60328   0.25530   0.00467   0.00000  Uiso   1.00
C281   C     0.57600   0.26298   0.00332   0.00000  Uiso   1.00
C282   C     0.56912   0.29018   0.00261   0.00000  Uiso   1.00
H99    H     0.64432   0.26878   0.00642   0.00000  Uiso   1.00
O49    O     0.60988   0.22799   0.00518   0.00000  Uiso   1.00
O50    O     0.55600   0.24325   0.00273   0.00000  Uiso   1.00
H100   H     0.54806   0.29575   0.00155   0.00000  Uiso   1.00
C283   C     0.10283   0.14355   0.50367   0.00000  Uiso   1.00
C284   C     0.13055   0.15111   0.50347   0.00000  Uiso   1.00
C285   C     0.15089   0.13077   0.50423   0.00000  Uiso   1.00
C286   C     0.14335   0.10303   0.50421   0.00000  Uiso   1.00
C287   C     0.11561   0.09561   0.50503   0.00000  Uiso   1.00
C288   C     0.09541   0.11581   0.50281   0.00000  Uiso   1.00
C289   C     0.16393   0.08328   0.50241   0.00000  Uiso   1.00
C290   C     0.19116   0.09021   0.50297   0.00000  Uiso   1.00
C291   C     0.19868   0.11743   0.50478   0.00000  Uiso   1.00
C292   C     0.17878   0.13729   0.50545   0.00000  Uiso   1.00
C293   C     0.08308   0.16412   0.50565   0.00000  Uiso   1.00
C294   C     0.08997   0.19135   0.50495   0.00000  Uiso   1.00
C295   C     0.11717   0.19889   0.50286   0.00000  Uiso   1.00
C296   C     0.13704   0.17900   0.50211   0.00000  Uiso   1.00
C297   C     0.06818   0.10758   0.49931   0.00000  Uiso   1.00
C298   C     0.06059   0.08056   0.50120   0.00000  Uiso   1.00
C299   C     0.08032   0.06081   0.50640   0.00000  Uiso   1.00
C300   C     0.10735   0.06838   0.50841   0.00000  Uiso   1.00
C301   C     0.07266   0.03360   0.50907   0.00000  Uiso   1.00
C302   C     0.04555   0.02658   0.50628   0.00000  Uiso   1.00
C303   C     0.02635   0.04581   0.50098   0.00000  Uiso   1.00
C304   C     0.03338   0.07292   0.49836   0.00000  Uiso   1.00
C305   C     0.22614   0.12448   0.50554   0.00000  Uiso   1.00
C306   C     0.24586   0.10447   0.50448   0.00000  Uiso   1.00
C307   C     0.23824   0.07715   0.50277   0.00000  Uiso   1.00
C308   C     0.21104   0.07012   0.50190   0.00000  Uiso   1.00
H101   H     0.15947   0.06220   0.49964   0.00000  Uiso   1.00
H102   H     0.18592   0.15767   0.50735   0.00000  Uiso   1.00
H103   H     0.06205   0.15963   0.50868   0.00000  Uiso   1.00
H104   H     0.15739   0.18615   0.50001   0.00000  Uiso   1.00
H105   H     0.05236   0.12167   0.49428   0.00000  Uiso   1.00
H106   H     0.12142   0.05253   0.51339   0.00000  Uiso   1.00
H107   H     0.08748   0.01803   0.51305   0.00000  Uiso   1.00
O51    O     0.03642   1.00038   0.50851   0.00000  Uiso   1.00
O52    O     1.00015   0.03670   0.49856   0.00000  Uiso   1.00
H108   H     0.01784   0.08776   0.49437   0.00000  Uiso   1.00
H109   H     0.23227   0.14540   0.50684   0.00000  Uiso   1.00
O53    O     0.27315   0.11122   0.50509   0.00000  Uiso   1.00
O54    O     0.25803   0.05728   0.50203   0.00000  Uiso   1.00
H110   H     0.20552   0.04904   0.50059   0.00000  Uiso   1.00
C309   C     0.12417   0.22636   0.50194   0.00000  Uiso   1.00
C310   C     0.10415   0.24607   0.50309   0.00000  Uiso   1.00
C311   C     0.07686   0.23842   0.50505   0.00000  Uiso   1.00
C312   C     0.06988   0.21122   0.50611   0.00000  Uiso   1.00
H111   H     0.14507   0.23251   0.50043   0.00000  Uiso   1.00
O55    O     0.11087   0.27337   0.50232   0.00000  Uiso   1.00
O56    O     0.05698   0.25820   0.50583   0.00000  Uiso   1.00
H112   H     0.04882   0.20568   0.50764   0.00000  Uiso   1.00
Cu1    Cu    0.50018   0.50045   0.00334   0.00000  Uiso   1.00
Cu2    Cu    0.00023   0.00048   0.50341   0.00000  Uiso   1.00
Zn1    Zn    0.21325   0.57675   0.00385   0.00000  Uiso   1.00
Zn2    Zn    0.92283   0.71305   0.50273   0.00000  Uiso   1.00
Zn3    Zn    0.78713   0.42418   0.00282   0.00000  Uiso   1.00
Zn4    Zn    0.07765   0.28793   0.50398   0.00000  Uiso   1.00
Zn5    Zn    0.71271   0.92301   0.50321   0.00000  Uiso   1.00
Zn6    Zn    0.57657   0.21353   0.00394   0.00000  Uiso   1.00
Zn7    Zn    0.28774   0.07800   0.50358   0.00000  Uiso   1.00
Zn8    Zn    0.42385   0.78738   0.00286   0.00000  Uiso   1.00
Zn9    Zn    0.00061   0.49944   0.25335   0.00000  Uiso   1.00
Zn10   Zn   -0.00023   0.50150   0.75337   0.00000  Uiso   1.00
Zn11   Zn    0.49926   0.00092   0.25338   0.00000  Uiso   1.00
Zn12   Zn    0.50115  -0.00002   0.75340   0.00000  Uiso   1.00
loop_
_geom_bond_atom_site_label_1
_geom_bond_atom_site_label_2
_geom_bond_distance
_geom_bond_site_symmetry_2
_ccdc_geom_bond_type
C1     C2      1.411   .     A
C1     C6      1.394   .     A
C1     H1      1.084   .     S
C2     C3      1.432   1_556 A
C2     C37     1.403   .     A
C3     C2      1.432   1_554 A
C3     C4      1.411   .     A
C3     C40     1.403   .     A
C4     C5      1.394   .     A
C4     H2      1.084   .     S
C5     C6      1.358   1_554 A
C5     C8      1.377   .     A
C6     C5      1.358   1_556 A
C6     C7      1.376   .     A
C7     N1      1.359   1_556 A
C7     N8      1.338   .     A
N1     C7      1.359   1_554 A
N1     C8      1.359   .     A
N1     Ni1     1.894   1_655 S
C8     N2      1.338   .     A
N2     C9      1.338   .     A
C9     N3      1.359   1_655 A
C9     C12     1.377   .     A
N3     C9      1.359   1_455 A
N3     C10     1.359   .     A
N3     Ni1     1.895   .     S
C10    C11     1.377   .     A
C10    N5      1.338   .     A
C11    C12     1.358   1_455 A
C11    C20     1.394   .     A
C12    C11     1.358   1_655 A
C12    C17     1.394   .     A
N4     C13     1.359   .     A
N4     C16     1.360   1_554 A
N4     Ni1     1.894   .     S
C13    N5      1.338   .     A
C13    C14     1.376   .     A
C14    C15     1.358   1_554 A
C14    C24     1.394   .     A
C15    C14     1.358   1_556 A
C15    C16     1.376   .     A
C15    C21     1.394   .     A
C16    N4      1.360   1_556 A
C16    N7      1.338   .     A
C17    C18     1.412   .     A
C17    H3      1.084   .     S
C18    C19     1.432   1_655 A
C18    C41     1.403   .     A
C19    C18     1.432   1_455 A
C19    C20     1.411   .     A
C19    C44     1.403   .     A
C20    H4      1.084   .     S
C21    C22     1.411   .     A
C21    H5      1.084   .     S
C22    C23     1.432   1_556 A
C22    C45     1.403   .     A
C23    C22     1.432   1_554 A
C23    C24     1.411   .     A
C23    C48     1.403   .     A
C24    H6      1.084   .     S
N6     C25     1.360   .     A
N6     C28     1.359   1_455 A
N6     Ni1     1.895   1_556 S
C25    N7      1.338   .     A
C25    C26     1.377   .     A
C26    C27     1.358   1_455 A
C26    C32     1.394   .     A
C27    C26     1.358   1_655 A
C27    C28     1.377   .     A
C27    C29     1.394   .     A
C28    N6      1.359   1_655 A
C28    N8      1.338   .     A
C29    C30     1.411   .     A
C29    H7      1.084   .     S
C30    C31     1.432   1_655 A
C30    C33     1.403   .     A
C31    C30     1.432   1_455 A
C31    C32     1.412   .     A
C31    C36     1.403   .     A
C32    H8      1.084   .     S
C33    C34     1.397   .     A
C33    H9      1.084   .     S
C34    C35     1.412   1_655 A
C34    O1      1.395   .     S
C35    C34     1.412   1_455 A
C35    C36     1.397   .     A
C35    O2      1.395   .     S
C36    H10     1.084   .     S
C37    C38     1.397   .     A
C37    H11     1.084   .     S
C38    C39     1.412   1_556 A
C38    O3      1.395   .     S
C39    C38     1.412   1_554 A
C39    C40     1.397   .     A
C39    O4      1.395   .     S
C40    H12     1.084   .     S
C41    C42     1.397   .     A
C41    H13     1.084   .     S
C42    C43     1.412   1_655 A
C42    O5      1.395   .     S
C43    C42     1.412   1_455 A
C43    C44     1.397   .     A
C43    O6      1.395   .     S
C44    H14     1.084   .     S
C45    C46     1.397   .     A
C45    H15     1.084   .     S
C46    C47     1.412   1_556 A
C46    O7      1.395   .     S
C47    C46     1.412   1_554 A
C47    C48     1.397   .     A
C47    O8      1.395   .     S
C48    H16     1.084   .     S
O1     Zn10    1.800   1_655 S
O2     Zn10    1.800   .     S
O3     Zn3     1.800   1_556 S
O4     Zn3     1.800   .     S
O5     Zn9     1.800   1_655 S
O6     Zn9     1.800   .     S
O7     Zn1     1.800   1_556 S
O8     Zn1     1.800   .     S
Ni1    N1      1.894   1_455 S
Ni1    N6      1.895   1_554 S
C49    C50     1.412   .     A
C49    C54     1.394   .     A
C49    H17     1.084   .     S
C50    C51     1.432   .     A
C50    C85     1.403   .     A
C51    C52     1.412   .     A
C51    C88     1.403   .     A
C52    C53     1.395   .     A
C52    H18     1.084   .     S
C53    C54     1.358   .     A
C53    C56     1.377   .     A
C54    C55     1.377   .     A
C55    N9      1.359   .     A
C55    N16     1.338   .     A
N9     C56     1.359   .     A
N9     Ni2     1.895   1_655 S
C56    N10     1.338   .     A
N10    C57     1.339   .     A
C57    N11     1.359   1_655 A
C57    C60     1.377   .     A
N11    C57     1.359   1_455 A
N11    C58     1.359   .     A
N11    Ni2     1.895   .     S
C58    C59     1.377   .     A
C58    N13     1.338   .     A
C59    C60     1.359   1_455 A
C59    C68     1.394   .     A
C60    C59     1.359   1_655 A
C60    C65     1.395   .     A
N12    C61     1.359   .     A
N12    C64     1.360   .     A
N12    Ni2     1.895   .     S
C61    N13     1.338   .     A
C61    C62     1.377   .     A
C62    C63     1.358   .     A
C62    C72     1.394   .     A
C63    C64     1.377   .     A
C63    C69     1.395   .     A
C64    N15     1.338   .     A
C65    C66     1.412   .     A
C65    H19     1.084   .     S
C66    C67     1.432   1_655 A
C66    C89     1.403   .     A
C67    C66     1.432   1_455 A
C67    C68     1.411   .     A
C67    C92     1.403   .     A
C68    H20     1.084   .     S
C69    C70     1.412   .     A
C69    H21     1.084   .     S
C70    C71     1.432   .     A
C70    C93     1.403   .     A
C71    C72     1.412   .     A
C71    C96     1.403   .     A
C72    H22     1.084   .     S
N14    C73     1.360   .     A
N14    C76     1.359   1_455 A
N14    Ni2     1.895   .     S
C73    N15     1.338   .     A
C73    C74     1.377   .     A
C74    C75     1.359   1_455 A
C74    C80     1.395   .     A
C75    C74     1.359   1_655 A
C75    C76     1.377   .     A
C75    C77     1.394   .     A
C76    N14     1.359   1_655 A
C76    N16     1.338   .     A
C77    C78     1.411   .     A
C77    H23     1.084   .     S
C78    C79     1.432   1_655 A
C78    C81     1.403   .     A
C79    C78     1.432   1_455 A
C79    C80     1.412   .     A
C79    C84     1.403   .     A
C80    H24     1.084   .     S
C81    C82     1.397   .     A
C81    H25     1.084   .     S
C82    C83     1.412   1_655 A
C82    O9      1.395   .     S
C83    C82     1.412   1_455 A
C83    C84     1.397   .     A
C83    O10     1.396   .     S
C84    H26     1.084   .     S
C85    C86     1.397   .     A
C85    H27     1.084   .     S
C86    C87     1.412   .     A
C86    O11     1.396   .     S
C87    C88     1.397   .     A
C87    O12     1.396   .     S
C88    H28     1.084   .     S
C89    C90     1.397   .     A
C89    H29     1.084   .     S
C90    C91     1.412   1_655 A
C90    O13     1.396   .     S
C91    C90     1.412   1_455 A
C91    C92     1.397   .     A
C91    O14     1.395   .     S
C92    H30     1.084   .     S
C93    C94     1.397   .     A
C93    H31     1.084   .     S
C94    C95     1.412   .     A
C94    O15     1.396   .     S
C95    C96     1.397   .     A
C95    O16     1.396   .     S
C96    H32     1.084   .     S
O9     Zn10    1.800   1_655 S
O10    Zn10    1.801   .     S
O11    Zn2     1.801   .     S
O12    Zn2     1.801   .     S
O13    Zn9     1.801   1_655 S
O14    Zn9     1.800   .     S
O15    Zn4     1.802   .     S
O16    Zn4     1.801   .     S
Ni2    N9      1.895   1_455 S
C97    C98     1.412   .     A
C97    C102    1.394   .     A
C97    H33     1.084   .     S
C98    C99     1.432   .     A
C98    C133    1.403   .     A
C99    C100    1.412   .     A
C99    C136    1.403   .     A
C100   C101    1.394   .     A
C100   H34     1.084   .     S
C101   C102    1.358   .     A
C101   C104    1.377   .     A
C102   C103    1.377   .     A
C103   N17     1.359   .     A
C103   N24     1.338   .     A
N17    C104    1.360   .     A
N17    Ni3     1.895   .     S
C104   N18     1.338   .     A
N18    C105    1.339   .     A
C105   N19     1.360   .     A
C105   C108    1.377   .     A
N19    C106    1.359   1_545 A
N19    Ni3     1.895   .     S
C106   N19     1.359   1_565 A
C106   C107    1.376   .     A
C106   N21     1.338   .     A
C107   C108    1.359   1_565 A
C107   C116    1.394   .     A
C108   C107    1.359   1_545 A
C108   C113    1.395   .     A
N20    C109    1.359   .     A
N20    C112    1.360   .     A
N20    Ni3     1.895   1_565 S
C109   N21     1.338   .     A
C109   C110    1.377   .     A
C110   C111    1.358   .     A
C110   C120    1.394   .     A
C111   C112    1.377   .     A
C111   C117    1.395   .     A
C112   N23     1.339   .     A
C113   C114    1.412   .     A
C113   H35     1.084   .     S
C114   C115    1.432   1_545 A
C114   C137    1.403   .     A
C115   C114    1.432   1_565 A
C115   C116    1.411   .     A
C115   C140    1.403   .     A
C116   H36     1.084   .     S
C117   C118    1.412   .     A
C117   H37     1.084   .     S
C118   C119    1.432   .     A
C118   C141    1.403   .     A
C119   C120    1.412   .     A
C119   C144    1.403   .     A
C120   H38     1.084   .     S
N22    C121    1.360   1_545 A
N22    C124    1.359   .     A
N22    Ni3     1.895   .     S
C121   N22     1.360   1_565 A
C121   N23     1.338   .     A
C121   C122    1.378   .     A
C122   C123    1.358   1_565 A
C122   C128    1.395   .     A
C123   C122    1.358   1_545 A
C123   C124    1.376   .     A
C123   C125    1.394   .     A
C124   N24     1.338   .     A
C125   C126    1.411   .     A
C125   H39     1.084   .     S
C126   C127    1.432   1_545 A
C126   C129    1.403   .     A
C127   C126    1.432   1_565 A
C127   C128    1.412   .     A
C127   C132    1.403   .     A
C128   H40     1.084   .     S
C129   C130    1.396   .     A
C129   H41     1.084   .     S
C130   C131    1.412   1_545 A
C130   O17     1.395   .     S
C131   C130    1.412   1_565 A
C131   C132    1.397   .     A
C131   O18     1.396   .     S
C132   H42     1.084   .     S
C133   C134    1.397   .     A
C133   H43     1.084   .     S
C134   C135    1.412   .     A
C134   O19     1.396   .     S
C135   C136    1.397   .     A
C135   O20     1.396   .     S
C136   H44     1.084   .     S
C137   C138    1.397   .     A
C137   H45     1.084   .     S
C138   C139    1.412   1_545 A
C138   O21     1.396   .     S
C139   C138    1.412   1_565 A
C139   C140    1.397   .     A
C139   O22     1.395   .     S
C140   H46     1.084   .     S
C141   C142    1.397   .     A
C141   H47     1.084   .     S
C142   C143    1.412   .     A
C142   O23     1.396   .     S
C143   C144    1.397   .     A
C143   O24     1.396   .     S
C144   H48     1.084   .     S
O17    Zn11    1.799   .     S
O18    Zn11    1.801   1_565 S
O19    Zn7     1.801   .     S
O20    Zn7     1.801   .     S
O21    Zn12    1.801   .     S
O22    Zn12    1.799   1_565 S
O23    Zn5     1.801   .     S
O24    Zn5     1.801   .     S
Ni3    N20     1.895   1_545 S
C145   C146    1.411   .     A
C145   C150    1.394   .     A
C145   H49     1.083   .     S
C146   C147    1.432   1_556 A
C146   C181    1.403   .     A
C147   C146    1.432   1_554 A
C147   C148    1.411   .     A
C147   C184    1.403   .     A
C148   C149    1.394   .     A
C148   H50     1.084   .     S
C149   C150    1.358   1_554 A
C149   C152    1.376   .     A
C150   C149    1.358   1_556 A
C150   C151    1.376   .     A
C151   N25     1.359   1_556 A
C151   N32     1.338   .     A
N25    C151    1.359   1_554 A
N25    C152    1.359   .     A
N25    Ni4     1.894   1_565 S
C152   N26     1.338   .     A
N26    C153    1.338   .     A
C153   N27     1.359   1_565 A
C153   C156    1.377   .     A
N27    C153    1.359   1_545 A
N27    C154    1.359   .     A
N27    Ni4     1.895   .     S
C154   C155    1.377   .     A
C154   N29     1.338   .     A
C155   C156    1.358   1_545 A
C155   C164    1.394   .     A
C156   C155    1.358   1_565 A
C156   C161    1.394   .     A
N28    C157    1.359   .     A
N28    C160    1.359   1_554 A
N28    Ni4     1.894   .     S
C157   N29     1.338   .     A
C157   C158    1.376   .     A
C158   C159    1.358   1_554 A
C158   C168    1.394   .     A
C159   C158    1.358   1_556 A
C159   C160    1.377   .     A
C159   C165    1.394   .     A
C160   N28     1.359   1_556 A
C160   N31     1.338   .     A
C161   C162    1.412   .     A
C161   H51     1.084   .     S
C162   C163    1.432   1_565 A
C162   C185    1.403   .     A
C163   C162    1.432   1_545 A
C163   C164    1.411   .     A
C163   C188    1.403   .     A
C164   H52     1.084   .     S
C165   C166    1.411   .     A
C165   H53     1.084   .     S
C166   C167    1.432   1_556 A
C166   C189    1.403   .     A
C167   C166    1.432   1_554 A
C167   C168    1.411   .     A
C167   C192    1.403   .     A
C168   H54     1.084   .     S
N30    C169    1.359   .     A
N30    C172    1.359   1_545 A
N30    Ni4     1.895   1_556 S
C169   N31     1.338   .     A
C169   C170    1.377   .     A
C170   C171    1.358   1_545 A
C170   C176    1.394   .     A
C171   C170    1.358   1_565 A
C171   C172    1.377   .     A
C171   C173    1.394   .     A
C172   N30     1.359   1_565 A
C172   N32     1.338   .     A
C173   C174    1.411   .     A
C173   H55     1.084   .     S
C174   C175    1.432   1_565 A
C174   C177    1.403   .     A
C175   C174    1.432   1_545 A
C175   C176    1.412   .     A
C175   C180    1.403   .     A
C176   H56     1.084   .     S
C177   C178    1.397   .     A
C177   H57     1.084   .     S
C178   C179    1.412   1_565 A
C178   O25     1.395   .     S
C179   C178    1.412   1_545 A
C179   C180    1.397   .     A
C179   O26     1.395   .     S
C180   H58     1.084   .     S
C181   C182    1.397   .     A
C181   H59     1.084   .     S
C182   C183    1.412   1_556 A
C182   O27     1.395   .     S
C183   C182    1.412   1_554 A
C183   C184    1.397   .     A
C183   O28     1.395   .     S
C184   H60     1.084   .     S
C185   C186    1.397   .     A
C185   H61     1.084   .     S
C186   C187    1.412   1_565 A
C186   O29     1.395   .     S
C187   C186    1.412   1_545 A
C187   C188    1.397   .     A
C187   O30     1.395   .     S
C188   H62     1.084   .     S
C189   C190    1.397   .     A
C189   H63     1.084   .     S
C190   C191    1.412   1_556 A
C190   O31     1.395   .     S
C191   C190    1.412   1_554 A
C191   C192    1.397   .     A
C191   O32     1.395   .     S
C192   H64     1.084   .     S
O25    Zn12    1.800   1_565 S
O26    Zn12    1.800   .     S
O27    Zn8     1.800   1_556 S
O28    Zn8     1.800   .     S
O29    Zn11    1.800   1_565 S
O30    Zn11    1.800   .     S
O31    Zn6     1.800   1_556 S
O32    Zn6     1.800   .     S
Ni4    N25     1.894   1_545 S
Ni4    N30     1.895   1_554 S
C193   C194    1.428   .     A
C193   C198    1.425   .     A
C193   C203    1.419   .     A
C194   C195    1.431   .     A
C194   C206    1.424   .     A
C195   C196    1.427   .     A
C195   C202    1.424   .     A
C196   C197    1.425   .     A
C196   C199    1.419   .     A
C197   C198    1.422   .     A
C197   C210    1.421   .     A
C198   C207    1.421   .     A
C199   C200    1.394   .     A
C199   H65     1.077   .     S
C200   C201    1.405   .     A
C200   C218    1.406   .     A
C201   C202    1.399   .     A
C201   C215    1.408   .     A
C202   H66     1.075   .     S
C203   C204    1.394   .     A
C203   H67     1.077   .     S
C204   C205    1.405   .     A
C204   C222    1.406   .     A
C205   C206    1.399   .     A
C205   C219    1.408   .     A
C206   H68     1.075   .     S
C207   C208    1.395   .     A
C207   H69     1.078   .     S
C208   C209    1.408   .     A
C208   C214    1.408   .     A
C209   C210    1.395   .     A
C209   C211    1.408   .     A
C210   H70     1.078   .     S
C211   C212    1.395   .     A
C211   H71     1.084   .     S
C212   C213    1.373   .     A
C212   O33     1.380   .     S
C213   C214    1.395   .     A
C213   O34     1.380   .     S
C214   H72     1.084   .     S
C215   C216    1.398   .     A
C215   H73     1.084   .     S
C216   C217    1.410   .     A
C216   O35     1.396   .     S
C217   C218    1.394   .     A
C217   O36     1.394   .     S
C218   H74     1.084   .     S
O33    Cu1     1.811   .     S
O34    Cu1     1.811   .     S
O35    Zn8     1.803   .     S
O36    Zn8     1.798   .     S
C219   C220    1.398   .     A
C219   H75     1.084   .     S
C220   C221    1.410   .     A
C220   O37     1.396   .     S
C221   C222    1.395   .     A
C221   O38     1.394   .     S
C222   H76     1.084   .     S
O37    Zn1     1.803   .     S
O38    Zn1     1.798   .     S
C223   C224    1.428   .     A
C223   C228    1.426   .     A
C223   C233    1.420   .     A
C224   C225    1.431   .     A
C224   C236    1.423   .     A
C225   C226    1.427   .     A
C225   C232    1.424   .     A
C226   C227    1.426   .     A
C226   C229    1.420   .     A
C227   C228    1.424   .     A
C227   C240    1.422   .     A
C228   C237    1.422   .     A
C229   C230    1.395   .     A
C229   H77     1.077   .     S
C230   C231    1.404   .     A
C230   C248    1.406   .     A
C231   C232    1.398   .     A
C231   C245    1.408   .     A
C232   H78     1.075   .     S
C233   C234    1.395   .     A
C233   H79     1.077   .     S
C234   C235    1.404   .     A
C234   C252    1.406   .     A
C235   C236    1.398   .     A
C235   C249    1.408   .     A
C236   H80     1.075   .     S
C237   C238    1.396   .     A
C237   H81     1.077   .     S
C238   C239    1.408   .     A
C238   C244    1.409   .     A
C239   C240    1.396   .     A
C239   C241    1.409   .     A
C240   H82     1.078   .     S
C241   C242    1.396   .     A
C241   H83     1.084   .     S
C242   C243    1.372   .     A
C242   O39     1.381   1_655 S
C243   C244    1.396   .     A
C243   O40     1.381   1_565 S
C244   H84     1.084   .     S
C245   C246    1.398   .     A
C245   H85     1.084   .     S
C246   C247    1.410   .     A
C246   O41     1.396   .     S
C247   C248    1.395   .     A
C247   O42     1.395   .     S
C248   H86     1.084   .     S
O39    C242    1.381   1_455 S
O39    Cu2     1.813   1_565 S
O40    C243    1.381   1_545 S
O40    Cu2     1.813   1_655 S
O41    Zn2     1.804   .     S
O42    Zn2     1.799   .     S
C249   C250    1.398   .     A
C249   H87     1.084   .     S
C250   C251    1.410   .     A
C250   O43     1.396   .     S
C251   C252    1.395   .     A
C251   O44     1.395   .     S
C252   H88     1.084   .     S
O43    Zn5     1.805   .     S
O44    Zn5     1.799   .     S
C253   C254    1.427   .     A
C253   C258    1.425   .     A
C253   C263    1.419   .     A
C254   C255    1.431   .     A
C254   C266    1.424   .     A
C255   C256    1.427   .     A
C255   C262    1.423   .     A
C256   C257    1.425   .     A
C256   C259    1.419   .     A
C257   C258    1.422   .     A
C257   C270    1.421   .     A
C258   C267    1.421   .     A
C259   C260    1.394   .     A
C259   H89     1.077   .     S
C260   C261    1.405   .     A
C260   C278    1.406   .     A
C261   C262    1.399   .     A
C261   C275    1.408   .     A
C262   H90     1.075   .     S
C263   C264    1.394   .     A
C263   H91     1.077   .     S
C264   C265    1.405   .     A
C264   C282    1.406   .     A
C265   C266    1.399   .     A
C265   C279    1.408   .     A
C266   H92     1.075   .     S
C267   C268    1.395   .     A
C267   H93     1.078   .     S
C268   C269    1.408   .     A
C268   C274    1.408   .     A
C269   C270    1.395   .     A
C269   C271    1.408   .     A
C270   H94     1.078   .     S
C271   C272    1.395   .     A
C271   H95     1.084   .     S
C272   C273    1.372   .     A
C272   O45     1.380   .     S
C273   C274    1.395   .     A
C273   O46     1.380   .     S
C274   H96     1.084   .     S
C275   C276    1.398   .     A
C275   H97     1.084   .     S
C276   C277    1.410   .     A
C276   O47     1.396   .     S
C277   C278    1.395   .     A
C277   O48     1.394   .     S
C278   H98     1.084   .     S
O45    Cu1     1.811   .     S
O46    Cu1     1.811   .     S
O47    Zn3     1.803   .     S
O48    Zn3     1.798   .     S
C279   C280    1.398   .     A
C279   H99     1.084   .     S
C280   C281    1.410   .     A
C280   O49     1.396   .     S
C281   C282    1.395   .     A
C281   O50     1.395   .     S
C282   H100    1.084   .     S
O49    Zn6     1.804   .     S
O50    Zn6     1.798   .     S
C283   C284    1.427   .     A
C283   C288    1.426   .     A
C283   C293    1.420   .     A
C284   C285    1.431   .     A
C284   C296    1.423   .     A
C285   C286    1.427   .     A
C285   C292    1.423   .     A
C286   C287    1.426   .     A
C286   C289    1.420   .     A
C287   C288    1.424   .     A
C287   C300    1.422   .     A
C288   C297    1.421   .     A
C289   C290    1.395   .     A
C289   H101    1.077   .     S
C290   C291    1.404   .     A
C290   C308    1.406   .     A
C291   C292    1.398   .     A
C291   C305    1.408   .     A
C292   H102    1.075   .     S
C293   C294    1.395   .     A
C293   H103    1.077   .     S
C294   C295    1.404   .     A
C294   C312    1.406   .     A
C295   C296    1.398   .     A
C295   C309    1.408   .     A
C296   H104    1.075   .     S
C297   C298    1.396   .     A
C297   H105    1.078   .     S
C298   C299    1.408   .     A
C298   C304    1.409   .     A
C299   C300    1.396   .     A
C299   C301    1.409   .     A
C300   H106    1.077   .     S
C301   C302    1.396   .     A
C301   H107    1.084   .     S
C302   C303    1.372   .     A
C302   O51     1.381   1_545 S
C303   C304    1.396   .     A
C303   O52     1.381   1_455 S
C304   H108    1.084   .     S
C305   C306    1.398   .     A
C305   H109    1.084   .     S
C306   C307    1.410   .     A
C306   O53     1.396   .     S
C307   C308    1.395   .     A
C307   O54     1.395   .     S
C308   H110    1.084   .     S
O51    C302    1.381   1_565 S
O51    Cu2     1.813   1_565 S
O52    C303    1.381   1_655 S
O52    Cu2     1.812   1_655 S
O53    Zn7     1.805   .     S
O54    Zn7     1.799   .     S
C309   C310    1.398   .     A
C309   H111    1.084   .     S
C310   C311    1.410   .     A
C310   O55     1.396   .     S
C311   C312    1.395   .     A
C311   O56     1.395   .     S
C312   H112    1.084   .     S
O55    Zn4     1.805   .     S
O56    Zn4     1.799   .     S
Cu2    O40     1.813   1_455 S
Cu2    O52     1.812   1_455 S
Cu2    O39     1.813   1_545 S
Cu2    O51     1.813   1_545 S
Zn1    O7      1.800   1_554 S
Zn3    O3      1.800   1_554 S
Zn6    O31     1.800   1_554 S
Zn8    O27     1.800   1_554 S
Zn9    O5      1.800   1_455 S
Zn9    O13     1.801   1_455 S
Zn10   O9      1.800   1_455 S
Zn10   O1      1.800   1_455 S
Zn11   O29     1.800   1_545 S
Zn11   O18     1.801   1_545 S
Zn12   O22     1.799   1_545 S
Zn12   O25     1.800   1_545 S
