data_tfn-TP_O-PcMN_O-Zntet
_audit_creation_date              2021-11-06
_audit_creation_method            'Materials Studio'
_symmetry_space_group_name_H-M    'P1'
_symmetry_Int_Tables_number       1
_symmetry_cell_setting            triclinic
loop_
_symmetry_equiv_pos_as_xyz
  x,y,z
_cell_length_a                    42.2189
_cell_length_b                    42.2189
_cell_length_c                    44.9723
_cell_angle_alpha                 90.0111
_cell_angle_beta                  90.0112
_cell_angle_gamma                 89.9998
loop_
_atom_site_label
_atom_site_type_symbol
_atom_site_fract_x
_atom_site_fract_y
_atom_site_fract_z
_atom_site_U_iso_or_equiv
_atom_site_adp_type
_atom_site_occupancy
C1     C     0.87993   0.46946   0.96981   0.00000  Uiso   1.00
C2     C     0.85190   0.46221   0.98550   0.00000  Uiso   1.00
C3     C     0.85193   0.46212   0.01734   0.00000  Uiso   1.00
C4     C     0.87999   0.46930   0.03302   0.00000  Uiso   1.00
C5     C     0.90705   0.47630   0.01652   0.00000  Uiso   1.00
C6     C     0.90703   0.47637   0.98632   0.00000  Uiso   1.00
C7     C     0.93733   0.48413   0.97768   0.00000  Uiso   1.00
N1     N     0.95665   0.48900   0.00142   0.00000  Uiso   1.00
C8     C     0.93737   0.48402   0.02517   0.00000  Uiso   1.00
N2     N     0.94628   0.48623   0.05365   0.00000  Uiso   1.00
C9     C     0.97568   0.49370   0.06226   0.00000  Uiso   1.00
N3     N     0.00018   0.49998   0.04356   0.00000  Uiso   1.00
C10    C     0.02471   0.50618   0.06226   0.00000  Uiso   1.00
C11    C     0.01581   0.50386   0.09163   0.00000  Uiso   1.00
C12    C     0.98462   0.49592   0.09163   0.00000  Uiso   1.00
N4     N     0.04365   0.51113   0.00142   0.00000  Uiso   1.00
C13    C     0.06297   0.51601   0.02517   0.00000  Uiso   1.00
N5     N     0.05410   0.51369   0.05365   0.00000  Uiso   1.00
C14    C     0.09327   0.52377   0.01653   0.00000  Uiso   1.00
C15    C     0.09325   0.52383   0.98632   0.00000  Uiso   1.00
C16    C     0.06293   0.51611   0.97768   0.00000  Uiso   1.00
C17    C     0.96760   0.49156   0.11787   0.00000  Uiso   1.00
C18    C     0.98381   0.49565   0.14506   0.00000  Uiso   1.00
C19    C     0.01667   0.50401   0.14506   0.00000  Uiso   1.00
C20    C     0.03286   0.50816   0.11788   0.00000  Uiso   1.00
C21    C     0.12031   0.53083   0.96982   0.00000  Uiso   1.00
C22    C     0.14837   0.53801   0.98551   0.00000  Uiso   1.00
C23    C     0.14840   0.53793   0.01735   0.00000  Uiso   1.00
C24    C     0.12037   0.53068   0.03303   0.00000  Uiso   1.00
N6     N     0.00012   0.50016   0.95929   0.00000  Uiso   1.00
C25    C     0.02462   0.50643   0.94059   0.00000  Uiso   1.00
N7     N     0.05403   0.51391   0.94920   0.00000  Uiso   1.00
C26    C     0.01568   0.50421   0.91122   0.00000  Uiso   1.00
C27    C     0.98449   0.49628   0.91122   0.00000  Uiso   1.00
C28    C     0.97559   0.49396   0.94058   0.00000  Uiso   1.00
C29    C     0.96744   0.49199   0.88497   0.00000  Uiso   1.00
C30    C     0.98362   0.49614   0.85779   0.00000  Uiso   1.00
C31    C     0.01649   0.50450   0.85779   0.00000  Uiso   1.00
C32    C     0.03270   0.50858   0.88497   0.00000  Uiso   1.00
N8     N     0.94620   0.48645   0.94919   0.00000  Uiso   1.00
H1     H     0.88059   0.46968   0.94573   0.00000  Uiso   1.00
H2     H     0.88069   0.46940   0.05711   0.00000  Uiso   1.00
H3     H     0.94274   0.48524   0.11722   0.00000  Uiso   1.00
H4     H     0.05772   0.51448   0.11723   0.00000  Uiso   1.00
H5     H     0.11961   0.53073   0.94574   0.00000  Uiso   1.00
H6     H     0.11971   0.53046   0.05712   0.00000  Uiso   1.00
H7     H     0.94258   0.48566   0.88562   0.00000  Uiso   1.00
H8     H     0.05756   0.51490   0.88563   0.00000  Uiso   1.00
C33    C     0.96768   0.49211   0.83067   0.00000  Uiso   1.00
C34    C     0.98383   0.49624   0.80384   0.00000  Uiso   1.00
C35    C     0.01624   0.50449   0.80384   0.00000  Uiso   1.00
C36    C     0.03241   0.50858   0.83068   0.00000  Uiso   1.00
C37    C     0.82393   0.45502   0.97007   0.00000  Uiso   1.00
C38    C     0.79628   0.44780   0.98572   0.00000  Uiso   1.00
C39    C     0.79631   0.44770   0.01712   0.00000  Uiso   1.00
C40    C     0.82399   0.45484   0.03277   0.00000  Uiso   1.00
C41    C     0.96789   0.49158   0.17217   0.00000  Uiso   1.00
C42    C     0.98405   0.49567   0.19900   0.00000  Uiso   1.00
C43    C     0.01647   0.50392   0.19901   0.00000  Uiso   1.00
C44    C     0.03261   0.50804   0.17217   0.00000  Uiso   1.00
C45    C     0.17631   0.54529   0.97008   0.00000  Uiso   1.00
C46    C     0.20399   0.55244   0.98573   0.00000  Uiso   1.00
C47    C     0.20402   0.55235   0.01713   0.00000  Uiso   1.00
C48    C     0.17637   0.54512   0.03278   0.00000  Uiso   1.00
H9     H     0.94281   0.48579   0.83030   0.00000  Uiso   1.00
O1     O     0.96808   0.49224   0.77681   0.00000  Uiso   1.00
O2     O     0.03198   0.50849   0.77682   0.00000  Uiso   1.00
H10    H     0.05728   0.51490   0.83031   0.00000  Uiso   1.00
H11    H     0.82353   0.45498   0.94598   0.00000  Uiso   1.00
O3     O     0.76841   0.44056   0.97046   0.00000  Uiso   1.00
O4     O     0.76848   0.44035   0.03237   0.00000  Uiso   1.00
H12    H     0.82364   0.45466   0.05686   0.00000  Uiso   1.00
H13    H     0.94302   0.48525   0.17254   0.00000  Uiso   1.00
O5     O     0.96832   0.49167   0.22603   0.00000  Uiso   1.00
O6     O     0.03221   0.50792   0.22603   0.00000  Uiso   1.00
H14    H     0.05749   0.51437   0.17255   0.00000  Uiso   1.00
H15    H     0.17667   0.54547   0.94599   0.00000  Uiso   1.00
O7     O     0.23182   0.55979   0.97048   0.00000  Uiso   1.00
O8     O     0.23189   0.55959   0.03238   0.00000  Uiso   1.00
H16    H     0.17677   0.54516   0.05687   0.00000  Uiso   1.00
Ni1    Ni    0.00015   0.50007   0.00142   0.00000  Uiso   1.00
C49    C     0.96944   0.62031   0.53291   0.00000  Uiso   1.00
C50    C     0.96223   0.64834   0.51719   0.00000  Uiso   1.00
C51    C     0.96226   0.64830   0.48535   0.00000  Uiso   1.00
C52    C     0.96948   0.62024   0.46970   0.00000  Uiso   1.00
C53    C     0.97642   0.59318   0.48623   0.00000  Uiso   1.00
C54    C     0.97640   0.59322   0.51643   0.00000  Uiso   1.00
C55    C     0.98414   0.56292   0.52511   0.00000  Uiso   1.00
N9     N     0.98908   0.54359   0.50138   0.00000  Uiso   1.00
C56    C     0.98417   0.56286   0.47762   0.00000  Uiso   1.00
N10    N     0.98645   0.55394   0.44914   0.00000  Uiso   1.00
C57    C     0.99395   0.52453   0.44056   0.00000  Uiso   1.00
N11    N     0.00018   0.50004   0.45929   0.00000  Uiso   1.00
C58    C     0.00643   0.47551   0.44061   0.00000  Uiso   1.00
C59    C     0.00417   0.48439   0.41123   0.00000  Uiso   1.00
C60    C     0.99624   0.51558   0.41120   0.00000  Uiso   1.00
N12    N     0.01121   0.45659   0.50147   0.00000  Uiso   1.00
C61    C     0.01615   0.43726   0.47774   0.00000  Uiso   1.00
N13    N     0.01391   0.44611   0.44925   0.00000  Uiso   1.00
C62    C     0.02389   0.40696   0.48642   0.00000  Uiso   1.00
C63    C     0.02387   0.40699   0.51662   0.00000  Uiso   1.00
C64    C     0.01612   0.43731   0.52523   0.00000  Uiso   1.00
C65    C     0.99192   0.53258   0.38494   0.00000  Uiso   1.00
C66    C     0.99605   0.51636   0.35777   0.00000  Uiso   1.00
C67    C     0.00441   0.48349   0.35780   0.00000  Uiso   1.00
C68    C     0.00852   0.46733   0.38500   0.00000  Uiso   1.00
C69    C     0.03081   0.37994   0.53315   0.00000  Uiso   1.00
C70    C     0.03804   0.35187   0.51750   0.00000  Uiso   1.00
C71    C     0.03806   0.35184   0.48566   0.00000  Uiso   1.00
C72    C     0.03085   0.37986   0.46994   0.00000  Uiso   1.00
N14    N     0.00012   0.50014   0.54356   0.00000  Uiso   1.00
C73    C     0.00635   0.47564   0.56229   0.00000  Uiso   1.00
N15    N     0.01384   0.44623   0.55371   0.00000  Uiso   1.00
C74    C     0.00406   0.48460   0.59164   0.00000  Uiso   1.00
C75    C     0.99613   0.51578   0.59161   0.00000  Uiso   1.00
C76    C     0.99387   0.52467   0.56224   0.00000  Uiso   1.00
C77    C     0.99178   0.53285   0.61785   0.00000  Uiso   1.00
C78    C     0.99589   0.51668   0.64505   0.00000  Uiso   1.00
C79    C     0.00425   0.48381   0.64507   0.00000  Uiso   1.00
C80    C     0.00838   0.46759   0.61791   0.00000  Uiso   1.00
N16    N     0.98638   0.55406   0.55360   0.00000  Uiso   1.00
H17    H     0.96958   0.61966   0.55699   0.00000  Uiso   1.00
H18    H     0.96966   0.61954   0.44561   0.00000  Uiso   1.00
H19    H     0.98560   0.55745   0.38557   0.00000  Uiso   1.00
H20    H     0.01484   0.44247   0.38568   0.00000  Uiso   1.00
H21    H     0.03063   0.38064   0.55724   0.00000  Uiso   1.00
H22    H     0.03071   0.38051   0.44586   0.00000  Uiso   1.00
H23    H     0.98546   0.55771   0.61717   0.00000  Uiso   1.00
H24    H     0.01470   0.44273   0.61728   0.00000  Uiso   1.00
C81    C     0.99182   0.53263   0.67214   0.00000  Uiso   1.00
C82    C     0.99592   0.51651   0.69899   0.00000  Uiso   1.00
C83    C     0.00417   0.48409   0.69902   0.00000  Uiso   1.00
C84    C     0.00829   0.46791   0.67220   0.00000  Uiso   1.00
C85    C     0.95499   0.67631   0.53259   0.00000  Uiso   1.00
C86    C     0.94782   0.70396   0.51691   0.00000  Uiso   1.00
C87    C     0.94784   0.70393   0.48551   0.00000  Uiso   1.00
C88    C     0.95504   0.67624   0.46989   0.00000  Uiso   1.00
C89    C     0.99201   0.53226   0.33065   0.00000  Uiso   1.00
C90    C     0.99613   0.51608   0.30383   0.00000  Uiso   1.00
C91    C     0.00437   0.48366   0.30386   0.00000  Uiso   1.00
C92    C     0.00847   0.46754   0.33070   0.00000  Uiso   1.00
C93    C     0.04526   0.32393   0.53296   0.00000  Uiso   1.00
C94    C     0.05246   0.29625   0.51734   0.00000  Uiso   1.00
C95    C     0.05249   0.29621   0.48594   0.00000  Uiso   1.00
C96    C     0.04531   0.32386   0.47026   0.00000  Uiso   1.00
H25    H     0.98550   0.55751   0.67249   0.00000  Uiso   1.00
O9     O     0.99191   0.53227   0.72600   0.00000  Uiso   1.00
O10    O     0.00816   0.46838   0.72605   0.00000  Uiso   1.00
H26    H     0.01461   0.44304   0.67259   0.00000  Uiso   1.00
H27    H     0.95486   0.67672   0.55668   0.00000  Uiso   1.00
O11    O     0.94051   0.73183   0.53213   0.00000  Uiso   1.00
O12    O     0.94057   0.73176   0.47023   0.00000  Uiso   1.00
H28    H     0.95495   0.67659   0.44580   0.00000  Uiso   1.00
H29    H     0.98568   0.55713   0.33025   0.00000  Uiso   1.00
O13    O     0.99213   0.53179   0.27679   0.00000  Uiso   1.00
O14    O     0.00839   0.46789   0.27684   0.00000  Uiso   1.00
H30    H     0.01480   0.44266   0.33036   0.00000  Uiso   1.00
H31    H     0.04535   0.32359   0.55705   0.00000  Uiso   1.00
O15    O     0.05974   0.26842   0.53262   0.00000  Uiso   1.00
O16    O     0.05979   0.26835   0.47072   0.00000  Uiso   1.00
H32    H     0.04544   0.32345   0.44617   0.00000  Uiso   1.00
Ni2    Ni    0.00014   0.50009   0.50142   0.00000  Uiso   1.00
C97    C     0.37993   0.03080   0.46997   0.00000  Uiso   1.00
C98    C     0.35190   0.03801   0.48569   0.00000  Uiso   1.00
C99    C     0.35194   0.03798   0.51752   0.00000  Uiso   1.00
C100   C     0.38000   0.03075   0.53318   0.00000  Uiso   1.00
C101   C     0.40706   0.02381   0.51665   0.00000  Uiso   1.00
C102   C     0.40703   0.02383   0.48644   0.00000  Uiso   1.00
C103   C     0.43733   0.01610   0.47777   0.00000  Uiso   1.00
N17    N     0.45666   0.01116   0.50150   0.00000  Uiso   1.00
C104   C     0.43738   0.01607   0.52526   0.00000  Uiso   1.00
N18    N     0.44630   0.01379   0.55373   0.00000  Uiso   1.00
C105   C     0.47572   0.00630   0.56231   0.00000  Uiso   1.00
N19    N     0.50021   0.00007   0.54359   0.00000  Uiso   1.00
C106   C     0.52474   0.99382   0.56227   0.00000  Uiso   1.00
C107   C     0.51585   0.99608   0.59164   0.00000  Uiso   1.00
C108   C     0.48467   0.00401   0.59167   0.00000  Uiso   1.00
N20    N     0.54365   0.98903   0.50141   0.00000  Uiso   1.00
C109   C     0.56299   0.98408   0.52513   0.00000  Uiso   1.00
N21    N     0.55413   0.98633   0.55363   0.00000  Uiso   1.00
C110   C     0.59329   0.97635   0.51646   0.00000  Uiso   1.00
C111   C     0.59325   0.97637   0.48625   0.00000  Uiso   1.00
C112   C     0.56293   0.98412   0.47764   0.00000  Uiso   1.00
C113   C     0.46766   0.00832   0.61793   0.00000  Uiso   1.00
C114   C     0.48388   0.00419   0.64510   0.00000  Uiso   1.00
C115   C     0.51675   0.99583   0.64507   0.00000  Uiso   1.00
C116   C     0.53292   0.99173   0.61787   0.00000  Uiso   1.00
C117   C     0.62031   0.96943   0.46972   0.00000  Uiso   1.00
C118   C     0.64837   0.96220   0.48538   0.00000  Uiso   1.00
C119   C     0.64841   0.96218   0.51722   0.00000  Uiso   1.00
C120   C     0.62038   0.96938   0.53293   0.00000  Uiso   1.00
N22    N     0.50011   0.00012   0.45932   0.00000  Uiso   1.00
C121   C     0.52460   0.99390   0.44059   0.00000  Uiso   1.00
N23    N     0.55401   0.98640   0.44917   0.00000  Uiso   1.00
C122   C     0.51565   0.99619   0.41123   0.00000  Uiso   1.00
C123   C     0.48446   0.00412   0.41126   0.00000  Uiso   1.00
C124   C     0.47558   0.00637   0.44064   0.00000  Uiso   1.00
C125   C     0.46740   0.00846   0.38503   0.00000  Uiso   1.00
C126   C     0.48356   0.00435   0.35783   0.00000  Uiso   1.00
C127   C     0.51643   0.99599   0.35780   0.00000  Uiso   1.00
C128   C     0.53265   0.99186   0.38497   0.00000  Uiso   1.00
N24    N     0.44618   0.01386   0.44928   0.00000  Uiso   1.00
H33    H     0.38058   0.03066   0.44588   0.00000  Uiso   1.00
H34    H     0.38071   0.03058   0.55726   0.00000  Uiso   1.00
H35    H     0.44280   0.01465   0.61730   0.00000  Uiso   1.00
H36    H     0.55778   0.98541   0.61720   0.00000  Uiso   1.00
H37    H     0.61960   0.96961   0.44564   0.00000  Uiso   1.00
H38    H     0.61974   0.96952   0.55702   0.00000  Uiso   1.00
H39    H     0.44253   0.01478   0.38570   0.00000  Uiso   1.00
H40    H     0.55752   0.98554   0.38560   0.00000  Uiso   1.00
C129   C     0.46761   0.00841   0.33073   0.00000  Uiso   1.00
C130   C     0.48373   0.00431   0.30388   0.00000  Uiso   1.00
C131   C     0.51615   0.99607   0.30386   0.00000  Uiso   1.00
C132   C     0.53233   0.99195   0.33068   0.00000  Uiso   1.00
C133   C     0.32393   0.04525   0.47029   0.00000  Uiso   1.00
C134   C     0.29628   0.05243   0.48596   0.00000  Uiso   1.00
C135   C     0.29632   0.05240   0.51737   0.00000  Uiso   1.00
C136   C     0.32400   0.04520   0.53298   0.00000  Uiso   1.00
C137   C     0.46798   0.00823   0.67223   0.00000  Uiso   1.00
C138   C     0.48416   0.00410   0.69905   0.00000  Uiso   1.00
C139   C     0.51658   0.99586   0.69902   0.00000  Uiso   1.00
C140   C     0.53271   0.99176   0.67217   0.00000  Uiso   1.00
C141   C     0.67631   0.95498   0.46992   0.00000  Uiso   1.00
C142   C     0.70400   0.94778   0.48554   0.00000  Uiso   1.00
C143   C     0.70403   0.94776   0.51694   0.00000  Uiso   1.00
C144   C     0.67638   0.95493   0.53261   0.00000  Uiso   1.00
H41    H     0.44273   0.01474   0.33038   0.00000  Uiso   1.00
O17    O     0.46796   0.00832   0.27687   0.00000  Uiso   1.00
O18    O     0.53186   0.99207   0.27682   0.00000  Uiso   1.00
H42    H     0.55720   0.98562   0.33028   0.00000  Uiso   1.00
H43    H     0.32352   0.04538   0.44619   0.00000  Uiso   1.00
O19    O     0.26842   0.05973   0.47074   0.00000  Uiso   1.00
O20    O     0.26849   0.05968   0.53265   0.00000  Uiso   1.00
H44    H     0.32365   0.04529   0.55708   0.00000  Uiso   1.00
H45    H     0.44311   0.01455   0.67262   0.00000  Uiso   1.00
O21    O     0.46845   0.00810   0.72608   0.00000  Uiso   1.00
O22    O     0.53235   0.99184   0.72603   0.00000  Uiso   1.00
H46    H     0.55758   0.98544   0.67252   0.00000  Uiso   1.00
H47    H     0.67666   0.95489   0.44582   0.00000  Uiso   1.00
O23    O     0.73183   0.94050   0.47026   0.00000  Uiso   1.00
O24    O     0.73190   0.94045   0.53216   0.00000  Uiso   1.00
H48    H     0.67679   0.95480   0.55671   0.00000  Uiso   1.00
Ni3    Ni    0.50016   0.00009   0.50145   0.00000  Uiso   1.00
C145   C     0.46955   0.87985   0.96984   0.00000  Uiso   1.00
C146   C     0.46230   0.85182   0.98553   0.00000  Uiso   1.00
C147   C     0.46221   0.85185   0.01736   0.00000  Uiso   1.00
C148   C     0.46940   0.87991   0.03305   0.00000  Uiso   1.00
C149   C     0.47640   0.90697   0.01655   0.00000  Uiso   1.00
C150   C     0.47647   0.90695   0.98635   0.00000  Uiso   1.00
C151   C     0.48423   0.93725   0.97770   0.00000  Uiso   1.00
N25    N     0.48910   0.95657   0.00145   0.00000  Uiso   1.00
C152   C     0.48412   0.93729   0.02520   0.00000  Uiso   1.00
N26    N     0.48632   0.94620   0.05368   0.00000  Uiso   1.00
C153   C     0.49380   0.97560   0.06229   0.00000  Uiso   1.00
N27    N     0.50007   0.00010   0.04359   0.00000  Uiso   1.00
C154   C     0.50627   0.02463   0.06229   0.00000  Uiso   1.00
C155   C     0.50395   0.01573   0.09166   0.00000  Uiso   1.00
C156   C     0.49601   0.98455   0.09166   0.00000  Uiso   1.00
N28    N     0.51123   0.04357   0.00145   0.00000  Uiso   1.00
C157   C     0.51610   0.06289   0.02520   0.00000  Uiso   1.00
N29    N     0.51378   0.05402   0.05368   0.00000  Uiso   1.00
C158   C     0.52386   0.09319   0.01656   0.00000  Uiso   1.00
C159   C     0.52393   0.09317   0.98635   0.00000  Uiso   1.00
C160   C     0.51621   0.06285   0.97771   0.00000  Uiso   1.00
C161   C     0.49165   0.96753   0.11790   0.00000  Uiso   1.00
C162   C     0.49573   0.98374   0.14509   0.00000  Uiso   1.00
C163   C     0.50409   0.01660   0.14509   0.00000  Uiso   1.00
C164   C     0.50824   0.03278   0.11790   0.00000  Uiso   1.00
C165   C     0.53092   0.12023   0.96985   0.00000  Uiso   1.00
C166   C     0.53810   0.14829   0.98554   0.00000  Uiso   1.00
C167   C     0.53802   0.14832   0.01737   0.00000  Uiso   1.00
C168   C     0.53077   0.12029   0.03306   0.00000  Uiso   1.00
N30    N     0.50025   0.00004   0.95932   0.00000  Uiso   1.00
C169   C     0.50652   0.02454   0.94061   0.00000  Uiso   1.00
N31    N     0.51400   0.05394   0.94922   0.00000  Uiso   1.00
C170   C     0.50430   0.01560   0.91125   0.00000  Uiso   1.00
C171   C     0.49637   0.98442   0.91124   0.00000  Uiso   1.00
C172   C     0.49405   0.97551   0.94061   0.00000  Uiso   1.00
C173   C     0.49207   0.96737   0.88500   0.00000  Uiso   1.00
C174   C     0.49622   0.98355   0.85781   0.00000  Uiso   1.00
C175   C     0.50458   0.01641   0.85782   0.00000  Uiso   1.00
C176   C     0.50867   0.03262   0.88500   0.00000  Uiso   1.00
N32    N     0.48654   0.94612   0.94922   0.00000  Uiso   1.00
H49    H     0.46977   0.88051   0.94576   0.00000  Uiso   1.00
H50    H     0.46950   0.88061   0.05714   0.00000  Uiso   1.00
H51    H     0.48533   0.94266   0.11725   0.00000  Uiso   1.00
H52    H     0.51457   0.05764   0.11725   0.00000  Uiso   1.00
H53    H     0.53082   0.11953   0.94577   0.00000  Uiso   1.00
H54    H     0.53055   0.11963   0.05715   0.00000  Uiso   1.00
H55    H     0.48575   0.94250   0.88565   0.00000  Uiso   1.00
H56    H     0.51499   0.05749   0.88566   0.00000  Uiso   1.00
C177   C     0.49219   0.96761   0.83070   0.00000  Uiso   1.00
C178   C     0.49632   0.98376   0.80387   0.00000  Uiso   1.00
C179   C     0.50456   0.01617   0.80387   0.00000  Uiso   1.00
C180   C     0.50866   0.03233   0.83071   0.00000  Uiso   1.00
C181   C     0.45511   0.82385   0.97010   0.00000  Uiso   1.00
C182   C     0.44788   0.79620   0.98574   0.00000  Uiso   1.00
C183   C     0.44778   0.79623   0.01714   0.00000  Uiso   1.00
C184   C     0.45493   0.82391   0.03279   0.00000  Uiso   1.00
C185   C     0.49166   0.96782   0.17220   0.00000  Uiso   1.00
C186   C     0.49575   0.98398   0.19903   0.00000  Uiso   1.00
C187   C     0.50400   0.01640   0.19903   0.00000  Uiso   1.00
C188   C     0.50812   0.03254   0.17220   0.00000  Uiso   1.00
C189   C     0.54538   0.17623   0.97011   0.00000  Uiso   1.00
C190   C     0.55252   0.20391   0.98575   0.00000  Uiso   1.00
C191   C     0.55243   0.20395   0.01716   0.00000  Uiso   1.00
C192   C     0.54520   0.17629   0.03280   0.00000  Uiso   1.00
H57    H     0.48587   0.94274   0.83033   0.00000  Uiso   1.00
O25    O     0.49232   0.96801   0.77684   0.00000  Uiso   1.00
O26    O     0.50857   0.03191   0.77685   0.00000  Uiso   1.00
H58    H     0.51498   0.05721   0.83034   0.00000  Uiso   1.00
H59    H     0.45507   0.82345   0.94600   0.00000  Uiso   1.00
O27    O     0.44064   0.76834   0.97049   0.00000  Uiso   1.00
O28    O     0.44043   0.76840   0.03239   0.00000  Uiso   1.00
H60    H     0.45475   0.82355   0.05689   0.00000  Uiso   1.00
H61    H     0.48533   0.94294   0.17257   0.00000  Uiso   1.00
O29    O     0.49174   0.96825   0.22606   0.00000  Uiso   1.00
O30    O     0.50800   0.03214   0.22606   0.00000  Uiso   1.00
H62    H     0.51445   0.05741   0.17257   0.00000  Uiso   1.00
H63    H     0.54556   0.17659   0.94601   0.00000  Uiso   1.00
O31    O     0.55987   0.23174   0.97050   0.00000  Uiso   1.00
O32    O     0.55967   0.23181   0.03241   0.00000  Uiso   1.00
H64    H     0.54524   0.17670   0.05690   0.00000  Uiso   1.00
Ni4    Ni    0.50017   0.00007   0.00145   0.00000  Uiso   1.00
C193   C     0.40517   0.57105   0.00143   0.00000  Uiso   1.00
C194   C     0.42917   0.59505   0.00141   0.00000  Uiso   1.00
C195   C     0.42042   0.62771   0.00144   0.00000  Uiso   1.00
C196   C     0.38768   0.63647   0.00141   0.00000  Uiso   1.00
C197   C     0.36375   0.61254   0.00144   0.00000  Uiso   1.00
C198   C     0.37251   0.57981   0.00141   0.00000  Uiso   1.00
C199   C     0.37990   0.66930   0.00133   0.00000  Uiso   1.00
C200   C     0.40316   0.69256   0.00138   0.00000  Uiso   1.00
C201   C     0.43510   0.68400   0.00149   0.00000  Uiso   1.00
C202   C     0.44359   0.65222   0.00152   0.00000  Uiso   1.00
C203   C     0.41491   0.53871   0.00150   0.00000  Uiso   1.00
C204   C     0.44678   0.53068   0.00146   0.00000  Uiso   1.00
C205   C     0.46954   0.55344   0.00135   0.00000  Uiso   1.00
C206   C     0.46152   0.58532   0.00132   0.00000  Uiso   1.00
C207   C     0.34800   0.55663   0.00134   0.00000  Uiso   1.00
C208   C     0.31623   0.56512   0.00138   0.00000  Uiso   1.00
C209   C     0.30767   0.59707   0.00149   0.00000  Uiso   1.00
C210   C     0.33092   0.62032   0.00153   0.00000  Uiso   1.00
H65    H     0.35605   0.67815   0.00121   0.00000  Uiso   1.00
O33    O     0.39484   0.72457   0.00132   0.00000  Uiso   1.00
O34    O     0.45831   0.70756   0.00155   0.00000  Uiso   1.00
H66    H     0.46866   0.64789   0.00164   0.00000  Uiso   1.00
H67    H     0.39883   0.51898   0.00161   0.00000  Uiso   1.00
O35    O     0.45727   0.49967   0.00151   0.00000  Uiso   1.00
O36    O     0.50055   0.54295   0.00130   0.00000  Uiso   1.00
H68    H     0.48124   0.60139   0.00121   0.00000  Uiso   1.00
H69    H     0.35233   0.53156   0.00123   0.00000  Uiso   1.00
O37    O     0.29266   0.54191   0.00133   0.00000  Uiso   1.00
O38    O     0.27566   0.60539   0.00154   0.00000  Uiso   1.00
H70    H     0.32207   0.64417   0.00165   0.00000  Uiso   1.00
C211   C     0.90518   0.92911   0.50119   0.00000  Uiso   1.00
C212   C     0.92918   0.90511   0.50119   0.00000  Uiso   1.00
C213   C     0.92042   0.87245   0.50115   0.00000  Uiso   1.00
C214   C     0.88769   0.86369   0.50112   0.00000  Uiso   1.00
C215   C     0.86376   0.88762   0.50113   0.00000  Uiso   1.00
C216   C     0.87252   0.92036   0.50116   0.00000  Uiso   1.00
C217   C     0.87991   0.83087   0.50110   0.00000  Uiso   1.00
C218   C     0.90316   0.80761   0.50111   0.00000  Uiso   1.00
C219   C     0.93511   0.81617   0.50114   0.00000  Uiso   1.00
C220   C     0.94360   0.84794   0.50115   0.00000  Uiso   1.00
C221   C     0.91491   0.96146   0.50124   0.00000  Uiso   1.00
C222   C     0.94679   0.96948   0.50129   0.00000  Uiso   1.00
C223   C     0.96955   0.94672   0.50129   0.00000  Uiso   1.00
C224   C     0.96152   0.91485   0.50124   0.00000  Uiso   1.00
C225   C     0.84801   0.94353   0.50116   0.00000  Uiso   1.00
C226   C     0.81623   0.93504   0.50115   0.00000  Uiso   1.00
C227   C     0.80767   0.90310   0.50113   0.00000  Uiso   1.00
C228   C     0.83093   0.87984   0.50111   0.00000  Uiso   1.00
H71    H     0.85606   0.82201   0.50107   0.00000  Uiso   1.00
O39    O     0.89484   0.77560   0.50110   0.00000  Uiso   1.00
O40    O     0.95832   0.79260   0.50115   0.00000  Uiso   1.00
H72    H     0.96867   0.85227   0.50117   0.00000  Uiso   1.00
H73    H     0.89884   0.98118   0.50125   0.00000  Uiso   1.00
O41    O     0.95728   1.00049   0.50135   0.00000  Uiso   1.00
O42    O     1.00056   0.95721   0.50135   0.00000  Uiso   1.00
H74    H     0.98125   0.89877   0.50125   0.00000  Uiso   1.00
H75    H     0.85234   0.96860   0.50118   0.00000  Uiso   1.00
O43    O     0.79267   0.95825   0.50118   0.00000  Uiso   1.00
O44    O     0.77566   0.89478   0.50113   0.00000  Uiso   1.00
H76    H     0.82208   0.85599   0.50109   0.00000  Uiso   1.00
C229   C     0.57113   0.40509   0.00144   0.00000  Uiso   1.00
C230   C     0.59513   0.42909   0.00140   0.00000  Uiso   1.00
C231   C     0.62779   0.42034   0.00143   0.00000  Uiso   1.00
C232   C     0.63655   0.38761   0.00141   0.00000  Uiso   1.00
C233   C     0.61262   0.36367   0.00145   0.00000  Uiso   1.00
C234   C     0.57988   0.37243   0.00142   0.00000  Uiso   1.00
C235   C     0.66937   0.37982   0.00132   0.00000  Uiso   1.00
C236   C     0.69263   0.40308   0.00136   0.00000  Uiso   1.00
C237   C     0.68407   0.43502   0.00147   0.00000  Uiso   1.00
C238   C     0.65230   0.44351   0.00151   0.00000  Uiso   1.00
C239   C     0.53878   0.41483   0.00150   0.00000  Uiso   1.00
C240   C     0.53076   0.44670   0.00146   0.00000  Uiso   1.00
C241   C     0.55352   0.46946   0.00136   0.00000  Uiso   1.00
C242   C     0.58539   0.46144   0.00132   0.00000  Uiso   1.00
C243   C     0.55671   0.34793   0.00135   0.00000  Uiso   1.00
C244   C     0.56520   0.31615   0.00139   0.00000  Uiso   1.00
C245   C     0.59714   0.30759   0.00150   0.00000  Uiso   1.00
C246   C     0.62040   0.33085   0.00154   0.00000  Uiso   1.00
H77    H     0.67822   0.35598   0.00119   0.00000  Uiso   1.00
O45    O     0.72464   0.39476   0.00130   0.00000  Uiso   1.00
O46    O     0.70764   0.45824   0.00153   0.00000  Uiso   1.00
H78    H     0.64797   0.46859   0.00164   0.00000  Uiso   1.00
H79    H     0.51906   0.39875   0.00162   0.00000  Uiso   1.00
O47    O     0.49975   0.45719   0.00151   0.00000  Uiso   1.00
O48    O     0.54303   0.50047   0.00130   0.00000  Uiso   1.00
H80    H     0.60147   0.48116   0.00120   0.00000  Uiso   1.00
H81    H     0.53164   0.35225   0.00123   0.00000  Uiso   1.00
O49    O     0.54199   0.29259   0.00134   0.00000  Uiso   1.00
O50    O     0.60546   0.27558   0.00157   0.00000  Uiso   1.00
H82    H     0.64425   0.32200   0.00167   0.00000  Uiso   1.00
C247   C     0.07114   0.09507   0.50167   0.00000  Uiso   1.00
C248   C     0.09514   0.07107   0.50167   0.00000  Uiso   1.00
C249   C     0.12780   0.07982   0.50172   0.00000  Uiso   1.00
C250   C     0.13655   0.11256   0.50175   0.00000  Uiso   1.00
C251   C     0.11262   0.13649   0.50175   0.00000  Uiso   1.00
C252   C     0.07989   0.12773   0.50171   0.00000  Uiso   1.00
C253   C     0.16938   0.12034   0.50178   0.00000  Uiso   1.00
C254   C     0.19264   0.09708   0.50177   0.00000  Uiso   1.00
C255   C     0.18408   0.06514   0.50174   0.00000  Uiso   1.00
C256   C     0.15230   0.05665   0.50172   0.00000  Uiso   1.00
C257   C     0.03879   0.08533   0.50162   0.00000  Uiso   1.00
C258   C     0.03077   0.05346   0.50157   0.00000  Uiso   1.00
C259   C     0.05353   0.03070   0.50157   0.00000  Uiso   1.00
C260   C     0.08540   0.03872   0.50162   0.00000  Uiso   1.00
C261   C     0.05671   0.15224   0.50171   0.00000  Uiso   1.00
C262   C     0.06521   0.18401   0.50173   0.00000  Uiso   1.00
C263   C     0.09715   0.19257   0.50175   0.00000  Uiso   1.00
C264   C     0.12040   0.16932   0.50177   0.00000  Uiso   1.00
H83    H     0.17823   0.14419   0.50180   0.00000  Uiso   1.00
O51    O     0.22465   0.10540   0.50177   0.00000  Uiso   1.00
O52    O     0.20764   0.04193   0.50172   0.00000  Uiso   1.00
H84    H     0.14798   0.03158   0.50171   0.00000  Uiso   1.00
H85    H     0.01907   0.10141   0.50161   0.00000  Uiso   1.00
O53    O    -0.00025   0.04297   0.50150   0.00000  Uiso   1.00
O54    O     0.04304  -0.00031   0.50150   0.00000  Uiso   1.00
H86    H     0.10148   0.01900   0.50161   0.00000  Uiso   1.00
H87    H     0.03164   0.14791   0.50170   0.00000  Uiso   1.00
O55    O     0.04199   0.20758   0.50170   0.00000  Uiso   1.00
O56    O     0.10547   0.22458   0.50175   0.00000  Uiso   1.00
H88    H     0.14425   0.17817   0.50179   0.00000  Uiso   1.00
Cu1    Cu    0.50015   0.50007   0.00139   0.00000  Uiso   1.00
Cu2    Cu    0.00016   0.00009   0.50142   0.00000  Uiso   1.00
Zn1    Zn    0.25798   0.56665   0.00143   0.00000  Uiso   1.00
Zn2    Zn    0.93358   0.75792   0.50115   0.00000  Uiso   1.00
Zn3    Zn    0.74232   0.43350   0.00141   0.00000  Uiso   1.00
Zn4    Zn    0.06672   0.24225   0.50170   0.00000  Uiso   1.00
Zn5    Zn    0.75799   0.93352   0.50118   0.00000  Uiso   1.00
Zn6    Zn    0.56672   0.25791   0.00146   0.00000  Uiso   1.00
Zn7    Zn    0.24232   0.06666   0.50172   0.00000  Uiso   1.00
Zn8    Zn    0.43358   0.74224   0.00144   0.00000  Uiso   1.00
Zn9    Zn    0.00026   0.49981   0.25142   0.00000  Uiso   1.00
Zn10   Zn    0.00003   0.50035   0.75142   0.00000  Uiso   1.00
Zn11   Zn    0.49989   0.00020   0.25145   0.00000  Uiso   1.00
Zn12   Zn    0.50042  -0.00004   0.75145   0.00000  Uiso   1.00
loop_
_geom_bond_atom_site_label_1
_geom_bond_atom_site_label_2
_geom_bond_distance
_geom_bond_site_symmetry_2
_ccdc_geom_bond_type
C1     C2      1.411   .     A
C1     C6      1.394   .     A
C1     H1      1.084   .     S
C2     C3      1.432   1_556 A
C2     C37     1.403   .     A
C3     C2      1.432   1_554 A
C3     C4      1.411   .     A
C3     C40     1.403   .     A
C4     C5      1.394   .     A
C4     H2      1.084   .     S
C5     C6      1.358   1_554 A
C5     C8      1.377   .     A
C6     C5      1.358   1_556 A
C6     C7      1.377   .     A
C7     N1      1.359   1_556 A
C7     N8      1.338   .     A
N1     C7      1.359   1_554 A
N1     C8      1.359   .     A
N1     Ni1     1.895   1_655 S
C8     N2      1.338   .     A
N2     C9      1.338   .     A
C9     N3      1.359   1_655 A
C9     C12     1.377   .     A
N3     C9      1.359   1_455 A
N3     C10     1.359   .     A
N3     Ni1     1.895   .     S
C10    C11     1.377   .     A
C10    N5      1.338   .     A
C11    C12     1.358   1_455 A
C11    C20     1.394   .     A
C12    C11     1.358   1_655 A
C12    C17     1.394   .     A
N4     C13     1.359   .     A
N4     C16     1.359   1_554 A
N4     Ni1     1.895   .     S
C13    N5      1.338   .     A
C13    C14     1.377   .     A
C14    C15     1.358   1_554 A
C14    C24     1.394   .     A
C15    C14     1.358   1_556 A
C15    C16     1.377   .     A
C15    C21     1.394   .     A
C16    N4      1.359   1_556 A
C16    N7      1.338   .     A
C17    C18     1.411   .     A
C17    H3      1.084   .     S
C18    C19     1.432   1_655 A
C18    C41     1.403   .     A
C19    C18     1.432   1_455 A
C19    C20     1.412   .     A
C19    C44     1.403   .     A
C20    H4      1.084   .     S
C21    C22     1.412   .     A
C21    H5      1.084   .     S
C22    C23     1.432   1_556 A
C22    C45     1.403   .     A
C23    C22     1.432   1_554 A
C23    C24     1.412   .     A
C23    C48     1.403   .     A
C24    H6      1.084   .     S
N6     C25     1.359   .     A
N6     C28     1.359   1_455 A
N6     Ni1     1.895   1_556 S
C25    N7      1.338   .     A
C25    C26     1.377   .     A
C26    C27     1.358   1_455 A
C26    C32     1.394   .     A
C27    C26     1.358   1_655 A
C27    C28     1.377   .     A
C27    C29     1.394   .     A
C28    N6      1.359   1_655 A
C28    N8      1.338   .     A
C29    C30     1.412   .     A
C29    H7      1.084   .     S
C30    C31     1.432   1_655 A
C30    C33     1.403   .     A
C31    C30     1.432   1_455 A
C31    C32     1.411   .     A
C31    C36     1.403   .     A
C32    H8      1.084   .     S
C33    C34     1.397   .     A
C33    H9      1.084   .     S
C34    C35     1.412   1_655 A
C34    O1      1.395   .     S
C35    C34     1.412   1_455 A
C35    C36     1.397   .     A
C35    O2      1.395   .     S
C36    H10     1.084   .     S
C37    C38     1.397   .     A
C37    H11     1.084   .     S
C38    C39     1.412   1_556 A
C38    O3      1.395   .     S
C39    C38     1.412   1_554 A
C39    C40     1.397   .     A
C39    O4      1.395   .     S
C40    H12     1.084   .     S
C41    C42     1.397   .     A
C41    H13     1.084   .     S
C42    C43     1.412   1_655 A
C42    O5      1.395   .     S
C43    C42     1.412   1_455 A
C43    C44     1.397   .     A
C43    O6      1.395   .     S
C44    H14     1.084   .     S
C45    C46     1.397   .     A
C45    H15     1.084   .     S
C46    C47     1.412   1_556 A
C46    O7      1.395   .     S
C47    C46     1.412   1_554 A
C47    C48     1.397   .     A
C47    O8      1.395   .     S
C48    H16     1.084   .     S
O1     Zn10    1.800   1_655 S
O2     Zn10    1.800   .     S
O3     Zn3     1.800   1_556 S
O4     Zn3     1.800   .     S
O5     Zn9     1.800   1_655 S
O6     Zn9     1.800   .     S
O7     Zn1     1.800   1_556 S
O8     Zn1     1.800   .     S
Ni1    N6      1.895   1_554 S
Ni1    N1      1.895   1_455 S
C49    C50     1.412   .     A
C49    C54     1.394   .     A
C49    H17     1.084   .     S
C50    C51     1.432   .     A
C50    C85     1.403   .     A
C51    C52     1.411   .     A
C51    C88     1.403   .     A
C52    C53     1.394   .     A
C52    H18     1.084   .     S
C53    C54     1.358   .     A
C53    C56     1.377   .     A
C54    C55     1.377   .     A
C55    N9      1.359   .     A
C55    N16     1.338   .     A
N9     C56     1.359   .     A
N9     Ni2     1.895   1_655 S
C56    N10     1.338   .     A
N10    C57     1.338   .     A
C57    N11     1.359   1_655 A
C57    C60     1.377   .     A
N11    C57     1.359   1_455 A
N11    C58     1.359   .     A
N11    Ni2     1.895   .     S
C58    C59     1.377   .     A
C58    N13     1.338   .     A
C59    C60     1.358   1_455 A
C59    C68     1.394   .     A
C60    C59     1.358   1_655 A
C60    C65     1.394   .     A
N12    C61     1.359   .     A
N12    C64     1.359   .     A
N12    Ni2     1.895   .     S
C61    N13     1.338   .     A
C61    C62     1.377   .     A
C62    C63     1.358   .     A
C62    C72     1.394   .     A
C63    C64     1.377   .     A
C63    C69     1.394   .     A
C64    N15     1.338   .     A
C65    C66     1.412   .     A
C65    H19     1.084   .     S
C66    C67     1.432   1_655 A
C66    C89     1.403   .     A
C67    C66     1.432   1_455 A
C67    C68     1.412   .     A
C67    C92     1.403   .     A
C68    H20     1.084   .     S
C69    C70     1.411   .     A
C69    H21     1.084   .     S
C70    C71     1.432   .     A
C70    C93     1.403   .     A
C71    C72     1.412   .     A
C71    C96     1.403   .     A
C72    H22     1.084   .     S
N14    C73     1.359   .     A
N14    C76     1.359   1_455 A
N14    Ni2     1.895   .     S
C73    N15     1.338   .     A
C73    C74     1.377   .     A
C74    C75     1.358   1_455 A
C74    C80     1.394   .     A
C75    C74     1.358   1_655 A
C75    C76     1.377   .     A
C75    C77     1.394   .     A
C76    N14     1.359   1_655 A
C76    N16     1.338   .     A
C77    C78     1.412   .     A
C77    H23     1.084   .     S
C78    C79     1.432   1_655 A
C78    C81     1.403   .     A
C79    C78     1.432   1_455 A
C79    C80     1.411   .     A
C79    C84     1.403   .     A
C80    H24     1.084   .     S
C81    C82     1.397   .     A
C81    H25     1.084   .     S
C82    C83     1.412   1_655 A
C82    O9      1.395   .     S
C83    C82     1.412   1_455 A
C83    C84     1.397   .     A
C83    O10     1.395   .     S
C84    H26     1.084   .     S
C85    C86     1.397   .     A
C85    H27     1.084   .     S
C86    C87     1.412   .     A
C86    O11     1.395   .     S
C87    C88     1.397   .     A
C87    O12     1.395   .     S
C88    H28     1.084   .     S
C89    C90     1.397   .     A
C89    H29     1.084   .     S
C90    C91     1.412   1_655 A
C90    O13     1.395   .     S
C91    C90     1.412   1_455 A
C91    C92     1.397   .     A
C91    O14     1.395   .     S
C92    H30     1.084   .     S
C93    C94     1.397   .     A
C93    H31     1.084   .     S
C94    C95     1.412   .     A
C94    O15     1.395   .     S
C95    C96     1.397   .     A
C95    O16     1.395   .     S
C96    H32     1.084   .     S
O9     Zn10    1.800   1_655 S
O10    Zn10    1.800   .     S
O11    Zn2     1.800   .     S
O12    Zn2     1.800   .     S
O13    Zn9     1.800   1_655 S
O14    Zn9     1.800   .     S
O15    Zn4     1.800   .     S
O16    Zn4     1.800   .     S
Ni2    N9      1.895   1_455 S
C97    C98     1.412   .     A
C97    C102    1.394   .     A
C97    H33     1.084   .     S
C98    C99     1.432   .     A
C98    C133    1.403   .     A
C99    C100    1.411   .     A
C99    C136    1.403   .     A
C100   C101    1.394   .     A
C100   H34     1.084   .     S
C101   C102    1.358   .     A
C101   C104    1.377   .     A
C102   C103    1.377   .     A
C103   N17     1.359   .     A
C103   N24     1.338   .     A
N17    C104    1.359   .     A
N17    Ni3     1.895   .     S
C104   N18     1.338   .     A
N18    C105    1.338   .     A
C105   N19     1.359   .     A
C105   C108    1.377   .     A
N19    C106    1.359   1_545 A
N19    Ni3     1.895   .     S
C106   N19     1.359   1_565 A
C106   C107    1.377   .     A
C106   N21     1.338   .     A
C107   C108    1.358   1_565 A
C107   C116    1.394   .     A
C108   C107    1.358   1_545 A
C108   C113    1.394   .     A
N20    C109    1.359   .     A
N20    C112    1.359   .     A
N20    Ni3     1.895   1_565 S
C109   N21     1.338   .     A
C109   C110    1.377   .     A
C110   C111    1.358   .     A
C110   C120    1.394   .     A
C111   C112    1.377   .     A
C111   C117    1.394   .     A
C112   N23     1.338   .     A
C113   C114    1.411   .     A
C113   H35     1.084   .     S
C114   C115    1.432   1_545 A
C114   C137    1.403   .     A
C115   C114    1.432   1_565 A
C115   C116    1.412   .     A
C115   C140    1.403   .     A
C116   H36     1.084   .     S
C117   C118    1.411   .     A
C117   H37     1.084   .     S
C118   C119    1.432   .     A
C118   C141    1.403   .     A
C119   C120    1.412   .     A
C119   C144    1.403   .     A
C120   H38     1.084   .     S
N22    C121    1.359   1_545 A
N22    C124    1.359   .     A
N22    Ni3     1.895   .     S
C121   N22     1.359   1_565 A
C121   N23     1.338   .     A
C121   C122    1.377   .     A
C122   C123    1.358   1_565 A
C122   C128    1.394   .     A
C123   C122    1.358   1_545 A
C123   C124    1.377   .     A
C123   C125    1.394   .     A
C124   N24     1.338   .     A
C125   C126    1.412   .     A
C125   H39     1.084   .     S
C126   C127    1.432   1_545 A
C126   C129    1.403   .     A
C127   C126    1.432   1_565 A
C127   C128    1.411   .     A
C127   C132    1.403   .     A
C128   H40     1.084   .     S
C129   C130    1.397   .     A
C129   H41     1.084   .     S
C130   C131    1.412   1_545 A
C130   O17     1.395   .     S
C131   C130    1.412   1_565 A
C131   C132    1.397   .     A
C131   O18     1.395   .     S
C132   H42     1.084   .     S
C133   C134    1.397   .     A
C133   H43     1.084   .     S
C134   C135    1.412   .     A
C134   O19     1.395   .     S
C135   C136    1.397   .     A
C135   O20     1.395   .     S
C136   H44     1.084   .     S
C137   C138    1.397   .     A
C137   H45     1.084   .     S
C138   C139    1.412   1_545 A
C138   O21     1.395   .     S
C139   C138    1.412   1_565 A
C139   C140    1.397   .     A
C139   O22     1.395   .     S
C140   H46     1.084   .     S
C141   C142    1.397   .     A
C141   H47     1.084   .     S
C142   C143    1.412   .     A
C142   O23     1.395   .     S
C143   C144    1.397   .     A
C143   O24     1.395   .     S
C144   H48     1.084   .     S
O17    Zn11    1.800   .     S
O18    Zn11    1.800   1_565 S
O19    Zn7     1.800   .     S
O20    Zn7     1.800   .     S
O21    Zn12    1.800   .     S
O22    Zn12    1.800   1_565 S
O23    Zn5     1.800   .     S
O24    Zn5     1.800   .     S
Ni3    N20     1.895   1_545 S
C145   C146    1.411   .     A
C145   C150    1.394   .     A
C145   H49     1.084   .     S
C146   C147    1.432   1_556 A
C146   C181    1.403   .     A
C147   C146    1.432   1_554 A
C147   C148    1.412   .     A
C147   C184    1.403   .     A
C148   C149    1.394   .     A
C148   H50     1.084   .     S
C149   C150    1.358   1_554 A
C149   C152    1.377   .     A
C150   C149    1.358   1_556 A
C150   C151    1.377   .     A
C151   N25     1.359   1_556 A
C151   N32     1.338   .     A
N25    C151    1.359   1_554 A
N25    C152    1.359   .     A
N25    Ni4     1.895   1_565 S
C152   N26     1.338   .     A
N26    C153    1.338   .     A
C153   N27     1.359   1_565 A
C153   C156    1.377   .     A
N27    C153    1.359   1_545 A
N27    C154    1.359   .     A
N27    Ni4     1.895   .     S
C154   C155    1.377   .     A
C154   N29     1.338   .     A
C155   C156    1.358   1_545 A
C155   C164    1.394   .     A
C156   C155    1.358   1_565 A
C156   C161    1.394   .     A
N28    C157    1.359   .     A
N28    C160    1.359   1_554 A
N28    Ni4     1.895   .     S
C157   N29     1.338   .     A
C157   C158    1.377   .     A
C158   C159    1.358   1_554 A
C158   C168    1.394   .     A
C159   C158    1.358   1_556 A
C159   C160    1.377   .     A
C159   C165    1.394   .     A
C160   N28     1.359   1_556 A
C160   N31     1.338   .     A
C161   C162    1.411   .     A
C161   H51     1.084   .     S
C162   C163    1.432   1_565 A
C162   C185    1.403   .     A
C163   C162    1.432   1_545 A
C163   C164    1.412   .     A
C163   C188    1.403   .     A
C164   H52     1.084   .     S
C165   C166    1.411   .     A
C165   H53     1.084   .     S
C166   C167    1.432   1_556 A
C166   C189    1.403   .     A
C167   C166    1.432   1_554 A
C167   C168    1.412   .     A
C167   C192    1.403   .     A
C168   H54     1.084   .     S
N30    C169    1.359   .     A
N30    C172    1.359   1_545 A
N30    Ni4     1.895   1_556 S
C169   N31     1.338   .     A
C169   C170    1.377   .     A
C170   C171    1.358   1_545 A
C170   C176    1.394   .     A
C171   C170    1.358   1_565 A
C171   C172    1.377   .     A
C171   C173    1.394   .     A
C172   N30     1.359   1_565 A
C172   N32     1.338   .     A
C173   C174    1.412   .     A
C173   H55     1.084   .     S
C174   C175    1.432   1_565 A
C174   C177    1.403   .     A
C175   C174    1.432   1_545 A
C175   C176    1.411   .     A
C175   C180    1.403   .     A
C176   H56     1.084   .     S
C177   C178    1.397   .     A
C177   H57     1.084   .     S
C178   C179    1.412   1_565 A
C178   O25     1.395   .     S
C179   C178    1.412   1_545 A
C179   C180    1.397   .     A
C179   O26     1.395   .     S
C180   H58     1.084   .     S
C181   C182    1.397   .     A
C181   H59     1.084   .     S
C182   C183    1.412   1_556 A
C182   O27     1.395   .     S
C183   C182    1.412   1_554 A
C183   C184    1.397   .     A
C183   O28     1.395   .     S
C184   H60     1.084   .     S
C185   C186    1.397   .     A
C185   H61     1.084   .     S
C186   C187    1.412   1_565 A
C186   O29     1.395   .     S
C187   C186    1.412   1_545 A
C187   C188    1.397   .     A
C187   O30     1.395   .     S
C188   H62     1.084   .     S
C189   C190    1.397   .     A
C189   H63     1.084   .     S
C190   C191    1.412   1_556 A
C190   O31     1.395   .     S
C191   C190    1.412   1_554 A
C191   C192    1.397   .     A
C191   O32     1.395   .     S
C192   H64     1.084   .     S
O25    Zn12    1.800   1_565 S
O26    Zn12    1.800   .     S
O27    Zn8     1.800   1_556 S
O28    Zn8     1.800   .     S
O29    Zn11    1.800   1_565 S
O30    Zn11    1.800   .     S
O31    Zn6     1.800   1_556 S
O32    Zn6     1.800   .     S
Ni4    N30     1.895   1_554 S
Ni4    N25     1.895   1_545 S
C193   C194    1.433   .     A
C193   C198    1.427   .     A
C193   C203    1.426   .     A
C194   C195    1.427   .     A
C194   C206    1.426   .     A
C195   C196    1.431   .     A
C195   C202    1.424   .     A
C196   C197    1.429   .     A
C196   C199    1.424   .     A
C197   C198    1.431   .     A
C197   C210    1.424   .     A
C198   C207    1.424   .     A
C199   C200    1.389   .     A
C199   H65     1.074   .     S
C200   C201    1.396   .     A
C200   O33     1.396   .     S
C201   C202    1.389   .     A
C201   O34     1.397   .     S
C202   H66     1.074   .     S
C203   C204    1.388   .     A
C203   H67     1.074   .     S
C204   C205    1.359   .     A
C204   O35     1.382   .     S
C205   C206    1.388   .     A
C205   O36     1.382   .     S
C206   H68     1.074   .     S
C207   C208    1.389   .     A
C207   H69     1.074   .     S
C208   C209    1.396   .     A
C208   O37     1.397   .     S
C209   C210    1.389   .     A
C209   O38     1.396   .     S
C210   H70     1.074   .     S
O33    Zn8     1.798   .     S
O34    Zn8     1.798   .     S
O35    Cu1     1.810   .     S
O36    Cu1     1.810   .     S
O37    Zn1     1.798   .     S
O38    Zn1     1.798   .     S
C211   C212    1.433   .     A
C211   C216    1.427   .     A
C211   C221    1.426   .     A
C212   C213    1.427   .     A
C212   C224    1.426   .     A
C213   C214    1.431   .     A
C213   C220    1.424   .     A
C214   C215    1.429   .     A
C214   C217    1.424   .     A
C215   C216    1.431   .     A
C215   C228    1.424   .     A
C216   C225    1.424   .     A
C217   C218    1.389   .     A
C217   H71     1.074   .     S
C218   C219    1.396   .     A
C218   O39     1.396   .     S
C219   C220    1.389   .     A
C219   O40     1.397   .     S
C220   H72     1.074   .     S
C221   C222    1.388   .     A
C221   H73     1.074   .     S
C222   C223    1.359   .     A
C222   O41     1.382   .     S
C223   C224    1.388   .     A
C223   O42     1.382   .     S
C224   H74     1.074   .     S
C225   C226    1.389   .     A
C225   H75     1.074   .     S
C226   C227    1.396   .     A
C226   O43     1.397   .     S
C227   C228    1.389   .     A
C227   O44     1.396   .     S
C228   H76     1.074   .     S
O39    Zn2     1.798   .     S
O40    Zn2     1.798   .     S
O41    Cu2     1.810   1_665 S
O42    Cu2     1.810   1_665 S
O43    Zn5     1.798   .     S
O44    Zn5     1.798   .     S
C229   C230    1.433   .     A
C229   C234    1.427   .     A
C229   C239    1.426   .     A
C230   C231    1.427   .     A
C230   C242    1.426   .     A
C231   C232    1.431   .     A
C231   C238    1.424   .     A
C232   C233    1.429   .     A
C232   C235    1.424   .     A
C233   C234    1.431   .     A
C233   C246    1.424   .     A
C234   C243    1.424   .     A
C235   C236    1.389   .     A
C235   H77     1.074   .     S
C236   C237    1.396   .     A
C236   O45     1.396   .     S
C237   C238    1.389   .     A
C237   O46     1.397   .     S
C238   H78     1.074   .     S
C239   C240    1.388   .     A
C239   H79     1.074   .     S
C240   C241    1.359   .     A
C240   O47     1.382   .     S
C241   C242    1.388   .     A
C241   O48     1.382   .     S
C242   H80     1.074   .     S
C243   C244    1.389   .     A
C243   H81     1.074   .     S
C244   C245    1.396   .     A
C244   O49     1.397   .     S
C245   C246    1.389   .     A
C245   O50     1.396   .     S
C246   H82     1.074   .     S
O45    Zn3     1.798   .     S
O46    Zn3     1.798   .     S
O47    Cu1     1.810   .     S
O48    Cu1     1.810   .     S
O49    Zn6     1.798   .     S
O50    Zn6     1.798   .     S
C247   C248    1.433   .     A
C247   C252    1.427   .     A
C247   C257    1.426   .     A
C248   C249    1.427   .     A
C248   C260    1.426   .     A
C249   C250    1.431   .     A
C249   C256    1.424   .     A
C250   C251    1.429   .     A
C250   C253    1.424   .     A
C251   C252    1.431   .     A
C251   C264    1.424   .     A
C252   C261    1.424   .     A
C253   C254    1.389   .     A
C253   H83     1.074   .     S
C254   C255    1.396   .     A
C254   O51     1.396   .     S
C255   C256    1.389   .     A
C255   O52     1.397   .     S
C256   H84     1.074   .     S
C257   C258    1.388   .     A
C257   H85     1.074   .     S
C258   C259    1.359   .     A
C258   O53     1.382   .     S
C259   C260    1.388   .     A
C259   O54     1.382   .     S
C260   H86     1.074   .     S
C261   C262    1.389   .     A
C261   H87     1.074   .     S
C262   C263    1.396   .     A
C262   O55     1.397   .     S
C263   C264    1.389   .     A
C263   O56     1.396   .     S
C264   H88     1.074   .     S
O51    Zn7     1.798   .     S
O52    Zn7     1.798   .     S
O53    Cu2     1.810   .     S
O54    Cu2     1.810   .     S
O55    Zn4     1.798   .     S
O56    Zn4     1.798   .     S
Cu2    O41     1.810   1_445 S
Cu2    O42     1.810   1_445 S
Zn1    O7      1.800   1_554 S
Zn3    O3      1.800   1_554 S
Zn6    O31     1.800   1_554 S
Zn8    O27     1.800   1_554 S
Zn9    O13     1.800   1_455 S
Zn9    O5      1.800   1_455 S
Zn10   O9      1.800   1_455 S
Zn10   O1      1.800   1_455 S
Zn11   O18     1.800   1_545 S
Zn11   O29     1.800   1_545 S
Zn12   O22     1.800   1_545 S
Zn12   O25     1.800   1_545 S
