data_ths-TN_O-Zntet
_audit_creation_date              2021-11-06
_audit_creation_method            'Materials Studio'
_symmetry_space_group_name_H-M    'P1'
_symmetry_Int_Tables_number       1
_symmetry_cell_setting            triclinic
loop_
_symmetry_equiv_pos_as_xyz
  x,y,z
_cell_length_a                    29.9145
_cell_length_b                    29.9145
_cell_length_c                    102.4849
_cell_angle_alpha                 90.0006
_cell_angle_beta                  89.9999
_cell_angle_gamma                 90.0000
loop_
_atom_site_label
_atom_site_type_symbol
_atom_site_fract_x
_atom_site_fract_y
_atom_site_fract_z
_atom_site_U_iso_or_equiv
_atom_site_adp_type
_atom_site_occupancy
C1     C     0.00010   0.77392   0.03004   0.00000  Uiso   1.00
C2     C     0.00010   0.79781   0.04212   0.00000  Uiso   1.00
C3     C     0.00010   0.77388   0.05421   0.00000  Uiso   1.00
C4     C     0.00010   0.72612   0.05421   0.00000  Uiso   1.00
C5     C     0.00010   0.70220   0.04212   0.00000  Uiso   1.00
C6     C     0.00010   0.72608   0.03004   0.00000  Uiso   1.00
C7     C     0.00009   0.70355   0.06645   0.00000  Uiso   1.00
C8     C     0.00009   0.72657   0.07829   0.00000  Uiso   1.00
C9     C     0.00009   0.77344   0.07829   0.00000  Uiso   1.00
C10    C     0.00009   0.79646   0.06645   0.00000  Uiso   1.00
C11    C     0.00010   0.79893   0.01821   0.00000  Uiso   1.00
C12    C     0.00010   0.84556   0.01811   0.00000  Uiso   1.00
C13    C     0.00010   0.86903   0.02998   0.00000  Uiso   1.00
C14    C     0.00011   0.84542   0.04171   0.00000  Uiso   1.00
C15    C     0.00010   0.70107   0.01821   0.00000  Uiso   1.00
C16    C     0.00010   0.65445   0.01811   0.00000  Uiso   1.00
C17    C     0.00010   0.63097   0.02998   0.00000  Uiso   1.00
C18    C     0.00011   0.65459   0.04171   0.00000  Uiso   1.00
C19    C     0.00010   0.58384   0.02991   0.00000  Uiso   1.00
C20    C     0.00010   0.56111   0.01802   0.00000  Uiso   1.00
C21    C     0.00010   0.58403   0.00643   0.00000  Uiso   1.00
C22    C     0.00010   0.63068   0.00623   0.00000  Uiso   1.00
C23    C     0.00008   0.79687   0.09020   0.00000  Uiso   1.00
C24    C     0.00007   0.77357   0.10200   0.00000  Uiso   1.00
C25    C     0.00007   0.72644   0.10200   0.00000  Uiso   1.00
C26    C     0.00008   0.70314   0.09020   0.00000  Uiso   1.00
H1     H     0.00009   0.66778   0.06729   0.00000  Uiso   1.00
H2     H     0.00009   0.83223   0.06729   0.00000  Uiso   1.00
H3     H     0.00010   0.78356   0.00874   0.00000  Uiso   1.00
H4     H     0.00011   0.86581   0.05033   0.00000  Uiso   1.00
H5     H     0.00010   0.71645   0.00874   0.00000  Uiso   1.00
H6     H     0.00011   0.63420   0.05033   0.00000  Uiso   1.00
H7     H     0.00010   0.56499   0.03894   0.00000  Uiso   1.00
O1     O     0.00010   0.51504   0.01713   0.00000  Uiso   1.00
O2     O     0.00010   0.55834   0.99523   0.00000  Uiso   1.00
H8     H     0.00010   0.64803   0.99694   0.00000  Uiso   1.00
H9     H     0.00008   0.83309   0.09036   0.00000  Uiso   1.00
O3     O     0.00007   0.79655   0.11385   0.00000  Uiso   1.00
O4     O     0.00007   0.70346   0.11385   0.00000  Uiso   1.00
H10    H     0.00008   0.66692   0.09036   0.00000  Uiso   1.00
C27    C     0.00010   0.91616   0.02991   0.00000  Uiso   1.00
C28    C     0.00010   0.93890   0.01802   0.00000  Uiso   1.00
C29    C     0.00010   0.91597   0.00643   0.00000  Uiso   1.00
C30    C     0.00010   0.86932   0.00623   0.00000  Uiso   1.00
H11    H     0.00010   0.93502   0.03894   0.00000  Uiso   1.00
O5     O     0.00010   0.98496   0.01713   0.00000  Uiso   1.00
O6     O     0.00010   0.94166   0.99523   0.00000  Uiso   1.00
H12    H     0.00010   0.85198   0.99694   0.00000  Uiso   1.00
C31    C     0.45224   0.75000   0.29212   0.00000  Uiso   1.00
C32    C     0.47613   0.75000   0.28004   0.00000  Uiso   1.00
C33    C     0.52396   0.75000   0.28004   0.00000  Uiso   1.00
C34    C     0.54785   0.75000   0.29212   0.00000  Uiso   1.00
C35    C     0.52392   0.75000   0.30421   0.00000  Uiso   1.00
C36    C     0.47616   0.75000   0.30421   0.00000  Uiso   1.00
C37    C     0.59546   0.75000   0.29171   0.00000  Uiso   1.00
C38    C     0.61907   0.75000   0.27998   0.00000  Uiso   1.00
C39    C     0.59560   0.75000   0.26811   0.00000  Uiso   1.00
C40    C     0.54898   0.75000   0.26820   0.00000  Uiso   1.00
C41    C     0.40463   0.75000   0.29171   0.00000  Uiso   1.00
C42    C     0.38102   0.75000   0.27998   0.00000  Uiso   1.00
C43    C     0.40449   0.75000   0.26811   0.00000  Uiso   1.00
C44    C     0.45112   0.75000   0.26820   0.00000  Uiso   1.00
C45    C     0.45359   0.75000   0.31645   0.00000  Uiso   1.00
C46    C     0.47661   0.75000   0.32829   0.00000  Uiso   1.00
C47    C     0.52347   0.75000   0.32829   0.00000  Uiso   1.00
C48    C     0.54650   0.75000   0.31645   0.00000  Uiso   1.00
C49    C     0.54690   0.75000   0.34020   0.00000  Uiso   1.00
C50    C     0.52360   0.75000   0.35200   0.00000  Uiso   1.00
C51    C     0.47648   0.75000   0.35200   0.00000  Uiso   1.00
C52    C     0.45317   0.75000   0.34020   0.00000  Uiso   1.00
C53    C     0.61937   0.75000   0.25623   0.00000  Uiso   1.00
C54    C     0.66602   0.75000   0.25643   0.00000  Uiso   1.00
C55    C     0.68894   0.75000   0.26802   0.00000  Uiso   1.00
C56    C     0.66620   0.75000   0.27991   0.00000  Uiso   1.00
H13    H     0.61585   0.75001   0.30033   0.00000  Uiso   1.00
H14    H     0.53360   0.74999   0.25874   0.00000  Uiso   1.00
H15    H     0.38424   0.75000   0.30033   0.00000  Uiso   1.00
H16    H     0.46649   0.75001   0.25874   0.00000  Uiso   1.00
H17    H     0.41782   0.75000   0.31729   0.00000  Uiso   1.00
H18    H     0.58226   0.75000   0.31729   0.00000  Uiso   1.00
H19    H     0.58313   0.75000   0.34036   0.00000  Uiso   1.00
O7     O     0.54658   0.75000   0.36385   0.00000  Uiso   1.00
O8     O     0.45349   0.75000   0.36385   0.00000  Uiso   1.00
H20    H     0.41695   0.75000   0.34036   0.00000  Uiso   1.00
H21    H     0.60202   0.75000   0.24694   0.00000  Uiso   1.00
O9     O     0.69171   0.75000   0.24523   0.00000  Uiso   1.00
O10    O     0.73501   0.75000   0.26713   0.00000  Uiso   1.00
H22    H     0.68506   0.75000   0.28894   0.00000  Uiso   1.00
C57    C     0.38072   0.75000   0.25623   0.00000  Uiso   1.00
C58    C     0.33408   0.75000   0.25643   0.00000  Uiso   1.00
C59    C     0.31115   0.75000   0.26802   0.00000  Uiso   1.00
C60    C     0.33389   0.75000   0.27991   0.00000  Uiso   1.00
H23    H     0.39807   0.75000   0.24694   0.00000  Uiso   1.00
O11    O     0.30838   0.75000   0.24523   0.00000  Uiso   1.00
O12    O     0.26508   0.75000   0.26713   0.00000  Uiso   1.00
H24    H     0.31503   0.75000   0.28894   0.00000  Uiso   1.00
C61    C     0.50000   0.27392   0.53004   0.00000  Uiso   1.00
C62    C     0.50000   0.29781   0.54212   0.00000  Uiso   1.00
C63    C     0.50000   0.27388   0.55421   0.00000  Uiso   1.00
C64    C     0.50000   0.22612   0.55421   0.00000  Uiso   1.00
C65    C     0.50000   0.20220   0.54212   0.00000  Uiso   1.00
C66    C     0.50000   0.22608   0.53004   0.00000  Uiso   1.00
C67    C     0.50000   0.20355   0.56645   0.00000  Uiso   1.00
C68    C     0.50001   0.22657   0.57829   0.00000  Uiso   1.00
C69    C     0.50001   0.27344   0.57829   0.00000  Uiso   1.00
C70    C     0.50000   0.29646   0.56645   0.00000  Uiso   1.00
C71    C     0.50000   0.29893   0.51820   0.00000  Uiso   1.00
C72    C     0.50000   0.34556   0.51811   0.00000  Uiso   1.00
C73    C     0.50000   0.36903   0.52998   0.00000  Uiso   1.00
C74    C     0.50000   0.34542   0.54171   0.00000  Uiso   1.00
C75    C     0.50000   0.20107   0.51820   0.00000  Uiso   1.00
C76    C     0.50000   0.15445   0.51811   0.00000  Uiso   1.00
C77    C     0.50000   0.13097   0.52998   0.00000  Uiso   1.00
C78    C     0.50000   0.15459   0.54171   0.00000  Uiso   1.00
C79    C     0.50000   0.08384   0.52991   0.00000  Uiso   1.00
C80    C     0.50000   0.06111   0.51802   0.00000  Uiso   1.00
C81    C     0.50000   0.08403   0.50643   0.00000  Uiso   1.00
C82    C     0.50000   0.13068   0.50623   0.00000  Uiso   1.00
C83    C     0.50001   0.29687   0.59020   0.00000  Uiso   1.00
C84    C     0.50002   0.27357   0.60200   0.00000  Uiso   1.00
C85    C     0.50002   0.22644   0.60200   0.00000  Uiso   1.00
C86    C     0.50001   0.20314   0.59020   0.00000  Uiso   1.00
H25    H     0.50000   0.16778   0.56729   0.00000  Uiso   1.00
H26    H     0.50000   0.33223   0.56729   0.00000  Uiso   1.00
H27    H     0.50000   0.28356   0.50874   0.00000  Uiso   1.00
H28    H     0.50000   0.36581   0.55033   0.00000  Uiso   1.00
H29    H     0.50000   0.21645   0.50874   0.00000  Uiso   1.00
H30    H     0.50000   0.13420   0.55033   0.00000  Uiso   1.00
H31    H     0.50000   0.06499   0.53894   0.00000  Uiso   1.00
O13    O     0.50000   0.01504   0.51713   0.00000  Uiso   1.00
O14    O     0.50000   0.05834   0.49523   0.00000  Uiso   1.00
H32    H     0.50000   0.14803   0.49694   0.00000  Uiso   1.00
H33    H     0.50001   0.33309   0.59036   0.00000  Uiso   1.00
O15    O     0.50003   0.29655   0.61385   0.00000  Uiso   1.00
O16    O     0.50003   0.20346   0.61385   0.00000  Uiso   1.00
H34    H     0.50001   0.16692   0.59036   0.00000  Uiso   1.00
C87    C     0.50000   0.41616   0.52991   0.00000  Uiso   1.00
C88    C     0.50000   0.43890   0.51802   0.00000  Uiso   1.00
C89    C     0.50000   0.41597   0.50643   0.00000  Uiso   1.00
C90    C     0.50000   0.36932   0.50623   0.00000  Uiso   1.00
H35    H     0.50000   0.43502   0.53894   0.00000  Uiso   1.00
O17    O     0.50000   0.48496   0.51713   0.00000  Uiso   1.00
O18    O     0.50000   0.44166   0.49523   0.00000  Uiso   1.00
H36    H     0.50000   0.35198   0.49694   0.00000  Uiso   1.00
C91    C     0.95224   0.25000   0.79212   0.00000  Uiso   1.00
C92    C     0.97612   0.25000   0.78004   0.00000  Uiso   1.00
C93    C     0.02396   0.25000   0.78004   0.00000  Uiso   1.00
C94    C     0.04785   0.25000   0.79212   0.00000  Uiso   1.00
C95    C     0.02393   0.25000   0.80421   0.00000  Uiso   1.00
C96    C     0.97617   0.25000   0.80421   0.00000  Uiso   1.00
C97    C     0.09546   0.25000   0.79171   0.00000  Uiso   1.00
C98    C     0.11907   0.25000   0.77998   0.00000  Uiso   1.00
C99    C     0.09560   0.25000   0.76811   0.00000  Uiso   1.00
C100   C     0.04897   0.25000   0.76820   0.00000  Uiso   1.00
C101   C     0.90463   0.25000   0.79171   0.00000  Uiso   1.00
C102   C     0.88101   0.25000   0.77998   0.00000  Uiso   1.00
C103   C     0.90449   0.25000   0.76811   0.00000  Uiso   1.00
C104   C     0.95111   0.25000   0.76821   0.00000  Uiso   1.00
C105   C     0.95359   0.25000   0.81645   0.00000  Uiso   1.00
C106   C     0.97662   0.25000   0.82829   0.00000  Uiso   1.00
C107   C     0.02348   0.25000   0.82829   0.00000  Uiso   1.00
C108   C     0.04650   0.25000   0.81645   0.00000  Uiso   1.00
C109   C     0.04692   0.25000   0.84020   0.00000  Uiso   1.00
C110   C     0.02361   0.25000   0.85200   0.00000  Uiso   1.00
C111   C     0.97649   0.25000   0.85201   0.00000  Uiso   1.00
C112   C     0.95319   0.25000   0.84020   0.00000  Uiso   1.00
C113   C     0.11937   0.25000   0.75623   0.00000  Uiso   1.00
C114   C     0.16601   0.25000   0.75643   0.00000  Uiso   1.00
C115   C     0.18894   0.25000   0.76802   0.00000  Uiso   1.00
C116   C     0.16620   0.25000   0.77991   0.00000  Uiso   1.00
H37    H     0.11585   0.25000   0.80033   0.00000  Uiso   1.00
H38    H     0.03360   0.25000   0.75874   0.00000  Uiso   1.00
H39    H     0.88424   0.25000   0.80033   0.00000  Uiso   1.00
H40    H     0.96649   0.25000   0.75874   0.00000  Uiso   1.00
H41    H     0.91783   0.25000   0.81729   0.00000  Uiso   1.00
H42    H     0.08227   0.25000   0.81729   0.00000  Uiso   1.00
H43    H     0.08314   0.25000   0.84036   0.00000  Uiso   1.00
O19    O     0.04660   0.25000   0.86385   0.00000  Uiso   1.00
O20    O     0.95351   0.25000   0.86385   0.00000  Uiso   1.00
H44    H     0.91696   0.25000   0.84036   0.00000  Uiso   1.00
H45    H     0.10202   0.25000   0.74694   0.00000  Uiso   1.00
O21    O     0.19171   0.25000   0.74523   0.00000  Uiso   1.00
O22    O     0.23501   0.25000   0.76713   0.00000  Uiso   1.00
H46    H     0.18506   0.25000   0.78894   0.00000  Uiso   1.00
C117   C     0.88072   0.25000   0.75623   0.00000  Uiso   1.00
C118   C     0.83407   0.25000   0.75643   0.00000  Uiso   1.00
C119   C     0.81115   0.25000   0.76802   0.00000  Uiso   1.00
C120   C     0.83389   0.25000   0.77991   0.00000  Uiso   1.00
H47    H     0.89807   0.25000   0.74694   0.00000  Uiso   1.00
O23    O     0.80838   0.25000   0.74523   0.00000  Uiso   1.00
O24    O     0.76508   0.25000   0.76713   0.00000  Uiso   1.00
H48    H     0.81503   0.25000   0.78894   0.00000  Uiso   1.00
C121   C     0.00010   0.27388   0.94579   0.00000  Uiso   1.00
C122   C     0.00010   0.22612   0.94579   0.00000  Uiso   1.00
C123   C     0.00010   0.20219   0.95788   0.00000  Uiso   1.00
C124   C     0.00010   0.22608   0.96996   0.00000  Uiso   1.00
C125   C     0.00010   0.27392   0.96996   0.00000  Uiso   1.00
C126   C     0.00010   0.29781   0.95788   0.00000  Uiso   1.00
C127   C     0.00010   0.20107   0.98179   0.00000  Uiso   1.00
C128   C     0.00010   0.15445   0.98189   0.00000  Uiso   1.00
C129   C     0.00010   0.13097   0.97002   0.00000  Uiso   1.00
C130   C     0.00011   0.15458   0.95829   0.00000  Uiso   1.00
C131   C     0.00009   0.29646   0.93355   0.00000  Uiso   1.00
C132   C     0.00009   0.27343   0.92171   0.00000  Uiso   1.00
C133   C     0.00009   0.22657   0.92171   0.00000  Uiso   1.00
C134   C     0.00009   0.20354   0.93355   0.00000  Uiso   1.00
C135   C     0.00011   0.34542   0.95829   0.00000  Uiso   1.00
C136   C     0.00010   0.36903   0.97002   0.00000  Uiso   1.00
C137   C     0.00010   0.34556   0.98189   0.00000  Uiso   1.00
C138   C     0.00010   0.29893   0.98179   0.00000  Uiso   1.00
C139   C     0.00010   0.36932   0.99377   0.00000  Uiso   1.00
C140   C     0.00010   0.41597   0.99357   0.00000  Uiso   1.00
C141   C     0.00010   0.43889   0.98198   0.00000  Uiso   1.00
C142   C     0.00010   0.41616   0.97009   0.00000  Uiso   1.00
C143   C     0.00010   0.08384   0.97009   0.00000  Uiso   1.00
C144   C     0.00010   0.06111   0.98198   0.00000  Uiso   1.00
C145   C     0.00010   0.08403   0.99357   0.00000  Uiso   1.00
C146   C     0.00010   0.13068   0.99377   0.00000  Uiso   1.00
H49    H     0.00010   0.21645   0.99126   0.00000  Uiso   1.00
H50    H     0.00011   0.13420   0.94967   0.00000  Uiso   1.00
H51    H     0.00009   0.33222   0.93271   0.00000  Uiso   1.00
H52    H     0.00009   0.16778   0.93271   0.00000  Uiso   1.00
H53    H     0.00011   0.36581   0.94967   0.00000  Uiso   1.00
H54    H     0.00010   0.28356   0.99126   0.00000  Uiso   1.00
H55    H     0.00010   0.35198   0.00305   0.00000  Uiso   1.00
O25    O     0.00010   0.44166   0.00477   0.00000  Uiso   1.00
O26    O     0.00010   0.48496   0.98287   0.00000  Uiso   1.00
H56    H     0.00010   0.43502   0.96106   0.00000  Uiso   1.00
H57    H     0.00010   0.06499   0.96106   0.00000  Uiso   1.00
O27    O     0.00010   0.01504   0.98287   0.00000  Uiso   1.00
O28    O     0.00010   0.05834   0.00477   0.00000  Uiso   1.00
H58    H     0.00010   0.14803   0.00305   0.00000  Uiso   1.00
C147   C     0.00008   0.20313   0.90980   0.00000  Uiso   1.00
C148   C     0.00007   0.22644   0.89799   0.00000  Uiso   1.00
C149   C     0.00007   0.27356   0.89799   0.00000  Uiso   1.00
C150   C     0.00008   0.29686   0.90980   0.00000  Uiso   1.00
H59    H     0.00008   0.16691   0.90964   0.00000  Uiso   1.00
O29    O     0.00007   0.20346   0.88615   0.00000  Uiso   1.00
O30    O     0.00007   0.29654   0.88615   0.00000  Uiso   1.00
H60    H     0.00008   0.33309   0.90964   0.00000  Uiso   1.00
C151   C     0.95224   0.75000   0.20788   0.00000  Uiso   1.00
C152   C     0.97613   0.75000   0.21996   0.00000  Uiso   1.00
C153   C     0.02397   0.75000   0.21996   0.00000  Uiso   1.00
C154   C     0.04785   0.75000   0.20788   0.00000  Uiso   1.00
C155   C     0.02393   0.75000   0.19579   0.00000  Uiso   1.00
C156   C     0.97617   0.75000   0.19579   0.00000  Uiso   1.00
C157   C     0.09546   0.75000   0.20829   0.00000  Uiso   1.00
C158   C     0.11908   0.75000   0.22002   0.00000  Uiso   1.00
C159   C     0.09560   0.75000   0.23189   0.00000  Uiso   1.00
C160   C     0.04897   0.75000   0.23179   0.00000  Uiso   1.00
C161   C     0.90463   0.75000   0.20829   0.00000  Uiso   1.00
C162   C     0.88102   0.75000   0.22002   0.00000  Uiso   1.00
C163   C     0.90449   0.75000   0.23189   0.00000  Uiso   1.00
C164   C     0.95112   0.75000   0.23179   0.00000  Uiso   1.00
C165   C     0.95359   0.75000   0.18355   0.00000  Uiso   1.00
C166   C     0.97662   0.75000   0.17171   0.00000  Uiso   1.00
C167   C     0.02348   0.75000   0.17171   0.00000  Uiso   1.00
C168   C     0.04650   0.75000   0.18355   0.00000  Uiso   1.00
C169   C     0.04692   0.75001   0.15980   0.00000  Uiso   1.00
C170   C     0.02362   0.75001   0.14799   0.00000  Uiso   1.00
C171   C     0.97649   0.75000   0.14799   0.00000  Uiso   1.00
C172   C     0.95319   0.75000   0.15980   0.00000  Uiso   1.00
C173   C     0.11937   0.75000   0.24377   0.00000  Uiso   1.00
C174   C     0.16602   0.75000   0.24357   0.00000  Uiso   1.00
C175   C     0.18894   0.75000   0.23198   0.00000  Uiso   1.00
C176   C     0.16620   0.75000   0.22009   0.00000  Uiso   1.00
H61    H     0.11585   0.75000   0.19967   0.00000  Uiso   1.00
H62    H     0.03360   0.75001   0.24126   0.00000  Uiso   1.00
H63    H     0.88424   0.75001   0.19967   0.00000  Uiso   1.00
H64    H     0.96649   0.74999   0.24126   0.00000  Uiso   1.00
H65    H     0.91783   0.75000   0.18271   0.00000  Uiso   1.00
H66    H     0.08227   0.75001   0.18271   0.00000  Uiso   1.00
H67    H     0.08314   0.75001   0.15964   0.00000  Uiso   1.00
O31    O     0.04660   0.75001   0.13615   0.00000  Uiso   1.00
O32    O     0.95352   0.75000   0.13615   0.00000  Uiso   1.00
H68    H     0.91696   0.75000   0.15964   0.00000  Uiso   1.00
H69    H     0.10202   0.75000   0.25306   0.00000  Uiso   1.00
O33    O     0.19171   0.75000   0.25477   0.00000  Uiso   1.00
O34    O     0.23501   0.75000   0.23287   0.00000  Uiso   1.00
H70    H     0.18506   0.75000   0.21106   0.00000  Uiso   1.00
C177   C     0.88072   0.75000   0.24377   0.00000  Uiso   1.00
C178   C     0.83407   0.75000   0.24357   0.00000  Uiso   1.00
C179   C     0.81115   0.75000   0.23198   0.00000  Uiso   1.00
C180   C     0.83389   0.75000   0.22009   0.00000  Uiso   1.00
H71    H     0.89807   0.75000   0.25305   0.00000  Uiso   1.00
O35    O     0.80838   0.75000   0.25477   0.00000  Uiso   1.00
O36    O     0.76508   0.75000   0.23287   0.00000  Uiso   1.00
H72    H     0.81503   0.75000   0.21106   0.00000  Uiso   1.00
C181   C     0.50000   0.77388   0.44579   0.00000  Uiso   1.00
C182   C     0.50000   0.72612   0.44579   0.00000  Uiso   1.00
C183   C     0.50000   0.70219   0.45788   0.00000  Uiso   1.00
C184   C     0.50000   0.72608   0.46996   0.00000  Uiso   1.00
C185   C     0.50000   0.77392   0.46996   0.00000  Uiso   1.00
C186   C     0.50000   0.79781   0.45788   0.00000  Uiso   1.00
C187   C     0.50000   0.70107   0.48179   0.00000  Uiso   1.00
C188   C     0.50000   0.65445   0.48189   0.00000  Uiso   1.00
C189   C     0.50000   0.63097   0.47002   0.00000  Uiso   1.00
C190   C     0.50000   0.65458   0.45829   0.00000  Uiso   1.00
C191   C     0.50000   0.79646   0.43355   0.00000  Uiso   1.00
C192   C     0.50001   0.77343   0.42171   0.00000  Uiso   1.00
C193   C     0.50001   0.72657   0.42171   0.00000  Uiso   1.00
C194   C     0.50000   0.70354   0.43355   0.00000  Uiso   1.00
C195   C     0.50000   0.84542   0.45829   0.00000  Uiso   1.00
C196   C     0.50000   0.86903   0.47002   0.00000  Uiso   1.00
C197   C     0.50000   0.84556   0.48189   0.00000  Uiso   1.00
C198   C     0.50000   0.79893   0.48179   0.00000  Uiso   1.00
C199   C     0.50000   0.86932   0.49377   0.00000  Uiso   1.00
C200   C     0.50000   0.91597   0.49357   0.00000  Uiso   1.00
C201   C     0.50000   0.93889   0.48198   0.00000  Uiso   1.00
C202   C     0.50000   0.91616   0.47009   0.00000  Uiso   1.00
C203   C     0.50000   0.58384   0.47009   0.00000  Uiso   1.00
C204   C     0.50000   0.56111   0.48198   0.00000  Uiso   1.00
C205   C     0.50000   0.58403   0.49357   0.00000  Uiso   1.00
C206   C     0.50000   0.63068   0.49377   0.00000  Uiso   1.00
H73    H     0.50000   0.71645   0.49126   0.00000  Uiso   1.00
H74    H     0.50000   0.63420   0.44967   0.00000  Uiso   1.00
H75    H     0.50000   0.83222   0.43271   0.00000  Uiso   1.00
H76    H     0.50000   0.66778   0.43271   0.00000  Uiso   1.00
H77    H     0.50000   0.86581   0.44967   0.00000  Uiso   1.00
H78    H     0.50000   0.78356   0.49126   0.00000  Uiso   1.00
H79    H     0.50000   0.85198   0.50305   0.00000  Uiso   1.00
O37    O     0.50000   0.94166   0.50477   0.00000  Uiso   1.00
O38    O     0.50000   0.98496   0.48287   0.00000  Uiso   1.00
H80    H     0.50000   0.93502   0.46106   0.00000  Uiso   1.00
H81    H     0.50000   0.56499   0.46106   0.00000  Uiso   1.00
O39    O     0.50000   0.51504   0.48287   0.00000  Uiso   1.00
O40    O     0.50000   0.55834   0.50477   0.00000  Uiso   1.00
H82    H     0.50000   0.64803   0.50305   0.00000  Uiso   1.00
C207   C     0.50001   0.70313   0.40980   0.00000  Uiso   1.00
C208   C     0.50002   0.72644   0.39799   0.00000  Uiso   1.00
C209   C     0.50002   0.77356   0.39799   0.00000  Uiso   1.00
C210   C     0.50001   0.79686   0.40980   0.00000  Uiso   1.00
H83    H     0.50001   0.66691   0.40964   0.00000  Uiso   1.00
O41    O     0.50003   0.70346   0.38615   0.00000  Uiso   1.00
O42    O     0.50003   0.79654   0.38615   0.00000  Uiso   1.00
H84    H     0.50001   0.83309   0.40964   0.00000  Uiso   1.00
C211   C     0.45224   0.25000   0.70788   0.00000  Uiso   1.00
C212   C     0.47613   0.25000   0.71996   0.00000  Uiso   1.00
C213   C     0.52396   0.25000   0.71996   0.00000  Uiso   1.00
C214   C     0.54785   0.25000   0.70788   0.00000  Uiso   1.00
C215   C     0.52392   0.25000   0.69579   0.00000  Uiso   1.00
C216   C     0.47616   0.25000   0.69579   0.00000  Uiso   1.00
C217   C     0.59546   0.25000   0.70829   0.00000  Uiso   1.00
C218   C     0.61907   0.25000   0.72002   0.00000  Uiso   1.00
C219   C     0.59560   0.25000   0.73189   0.00000  Uiso   1.00
C220   C     0.54897   0.25000   0.73179   0.00000  Uiso   1.00
C221   C     0.40463   0.25000   0.70829   0.00000  Uiso   1.00
C222   C     0.38101   0.25000   0.72002   0.00000  Uiso   1.00
C223   C     0.40449   0.25000   0.73189   0.00000  Uiso   1.00
C224   C     0.45112   0.25000   0.73179   0.00000  Uiso   1.00
C225   C     0.45359   0.25000   0.68355   0.00000  Uiso   1.00
C226   C     0.47661   0.25000   0.67171   0.00000  Uiso   1.00
C227   C     0.52347   0.25000   0.67171   0.00000  Uiso   1.00
C228   C     0.54650   0.25000   0.68355   0.00000  Uiso   1.00
C229   C     0.54690   0.25000   0.65980   0.00000  Uiso   1.00
C230   C     0.52360   0.25000   0.64799   0.00000  Uiso   1.00
C231   C     0.47648   0.25000   0.64799   0.00000  Uiso   1.00
C232   C     0.45317   0.25000   0.65980   0.00000  Uiso   1.00
C233   C     0.61937   0.25000   0.74377   0.00000  Uiso   1.00
C234   C     0.66601   0.25000   0.74357   0.00000  Uiso   1.00
C235   C     0.68894   0.25000   0.73198   0.00000  Uiso   1.00
C236   C     0.66620   0.25000   0.72009   0.00000  Uiso   1.00
H85    H     0.61585   0.25000   0.69967   0.00000  Uiso   1.00
H86    H     0.53360   0.25000   0.74126   0.00000  Uiso   1.00
H87    H     0.38424   0.25000   0.69967   0.00000  Uiso   1.00
H88    H     0.46649   0.25000   0.74126   0.00000  Uiso   1.00
H89    H     0.41782   0.25000   0.68271   0.00000  Uiso   1.00
H90    H     0.58226   0.25000   0.68271   0.00000  Uiso   1.00
H91    H     0.58313   0.25000   0.65964   0.00000  Uiso   1.00
O43    O     0.54658   0.25001   0.63615   0.00000  Uiso   1.00
O44    O     0.45349   0.25001   0.63615   0.00000  Uiso   1.00
H92    H     0.41695   0.25000   0.65964   0.00000  Uiso   1.00
H93    H     0.60202   0.25000   0.75305   0.00000  Uiso   1.00
O45    O     0.69171   0.25000   0.75477   0.00000  Uiso   1.00
O46    O     0.73501   0.25000   0.73287   0.00000  Uiso   1.00
H94    H     0.68506   0.25000   0.71106   0.00000  Uiso   1.00
C237   C     0.38072   0.25000   0.74377   0.00000  Uiso   1.00
C238   C     0.33407   0.25000   0.74357   0.00000  Uiso   1.00
C239   C     0.31115   0.25000   0.73198   0.00000  Uiso   1.00
C240   C     0.33389   0.25000   0.72009   0.00000  Uiso   1.00
H95    H     0.39807   0.25000   0.75305   0.00000  Uiso   1.00
O47    O     0.30838   0.25000   0.75477   0.00000  Uiso   1.00
O48    O     0.26508   0.25000   0.73287   0.00000  Uiso   1.00
H96    H     0.31503   0.25000   0.71106   0.00000  Uiso   1.00
Cu1    Cu    0.00009   0.50000  -0.00000   0.00000  Uiso   1.00
Cu2    Cu    0.75005   0.74999   0.25000   0.00000  Uiso   1.00
Cu3    Cu    0.49999   0.50000   0.50000   0.00000  Uiso   1.00
Cu4    Cu    0.75004   0.24999   0.75000   0.00000  Uiso   1.00
Cu5    Cu    0.25004   0.24999   0.75000   0.00000  Uiso   1.00
Cu6    Cu    0.25005   0.74999   0.25000   0.00000  Uiso   1.00
Cu7    Cu    0.49999   1.00000   0.50000   0.00000  Uiso   1.00
Cu8    Cu    0.00009   1.00000  -0.00000   0.00000  Uiso   1.00
Zn1    Zn    0.00006   0.75001   0.12500   0.00000  Uiso   1.00
Zn2    Zn    0.50003   0.75000   0.37500   0.00000  Uiso   1.00
Zn3    Zn    0.50003   0.25001   0.62500   0.00000  Uiso   1.00
Zn4    Zn    0.00006   0.25000   0.87500   0.00000  Uiso   1.00
loop_
_geom_bond_atom_site_label_1
_geom_bond_atom_site_label_2
_geom_bond_distance
_geom_bond_site_symmetry_2
_ccdc_geom_bond_type
C1     C2      1.429   .     A
C1     C6      1.431   .     A
C1     C11     1.425   .     A
C2     C3      1.431   .     A
C2     C14     1.425   .     A
C3     C4      1.429   .     A
C3     C10     1.425   .     A
C4     C5      1.431   .     A
C4     C7      1.425   .     A
C5     C6      1.429   .     A
C5     C18     1.425   .     A
C6     C15     1.425   .     A
C7     C8      1.395   .     A
C7     H1      1.073   .     S
C8     C9      1.402   .     A
C8     C26     1.408   .     A
C9     C10     1.395   .     A
C9     C23     1.408   .     A
C10    H2      1.073   .     S
C11    C12     1.395   .     A
C11    H3      1.073   .     S
C12    C13     1.405   .     A
C12    C30     1.410   .     A
C13    C14     1.395   .     A
C13    C27     1.410   .     A
C14    H4      1.073   .     S
C15    C16     1.395   .     A
C15    H5      1.073   .     S
C16    C17     1.405   .     A
C16    C22     1.410   .     A
C17    C18     1.395   .     A
C17    C19     1.410   .     A
C18    H6      1.073   .     S
C19    C20     1.396   .     A
C19    H7      1.084   .     S
C20    C21     1.372   .     A
C20    O1      1.381   .     S
C21    C22     1.396   .     A
C21    O2      1.381   1_554 S
C22    H8      1.084   1_554 S
C23    C24     1.396   .     A
C23    H9      1.084   .     S
C24    C25     1.410   .     A
C24    O3      1.395   .     S
C25    C26     1.396   .     A
C25    O4      1.395   .     S
C26    H10     1.084   .     S
O1     Cu1     1.812   .     S
O2     C21     1.381   1_556 S
O2     Cu1     1.812   1_556 S
H8     C22     1.084   1_556 S
O3     Zn1     1.801   .     S
O4     Zn1     1.801   .     S
C27    C28     1.396   .     A
C27    H11     1.084   .     S
C28    C29     1.372   .     A
C28    O5      1.381   .     S
C29    C30     1.396   .     A
C29    O6      1.381   1_554 S
C30    H12     1.084   1_554 S
O5     Cu8     1.812   .     S
O6     C29     1.381   1_556 S
O6     Cu8     1.812   1_556 S
H12    C30     1.084   1_556 S
C31    C32     1.429   .     A
C31    C36     1.431   .     A
C31    C41     1.425   .     A
C32    C33     1.431   .     A
C32    C44     1.425   .     A
C33    C34     1.429   .     A
C33    C40     1.425   .     A
C34    C35     1.431   .     A
C34    C37     1.425   .     A
C35    C36     1.429   .     A
C35    C48     1.425   .     A
C36    C45     1.425   .     A
C37    C38     1.395   .     A
C37    H13     1.073   .     S
C38    C39     1.405   .     A
C38    C56     1.410   .     A
C39    C40     1.395   .     A
C39    C53     1.410   .     A
C40    H14     1.073   .     S
C41    C42     1.395   .     A
C41    H15     1.073   .     S
C42    C43     1.405   .     A
C42    C60     1.410   .     A
C43    C44     1.395   .     A
C43    C57     1.410   .     A
C44    H16     1.073   .     S
C45    C46     1.395   .     A
C45    H17     1.073   .     S
C46    C47     1.402   .     A
C46    C52     1.408   .     A
C47    C48     1.395   .     A
C47    C49     1.408   .     A
C48    H18     1.073   .     S
C49    C50     1.396   .     A
C49    H19     1.084   .     S
C50    C51     1.410   .     A
C50    O7      1.395   .     S
C51    C52     1.396   .     A
C51    O8      1.395   .     S
C52    H20     1.084   .     S
C53    C54     1.396   .     A
C53    H21     1.084   .     S
C54    C55     1.372   .     A
C54    O9      1.381   .     S
C55    C56     1.396   .     A
C55    O10     1.381   .     S
C56    H22     1.084   .     S
O7     Zn2     1.801   .     S
O8     Zn2     1.801   .     S
O9     Cu2     1.812   .     S
O10    Cu2     1.812   .     S
C57    C58     1.396   .     A
C57    H23     1.084   .     S
C58    C59     1.372   .     A
C58    O11     1.381   .     S
C59    C60     1.396   .     A
C59    O12     1.381   .     S
C60    H24     1.084   .     S
O11    Cu6     1.812   .     S
O12    Cu6     1.812   .     S
C61    C62     1.429   .     A
C61    C66     1.431   .     A
C61    C71     1.425   .     A
C62    C63     1.431   .     A
C62    C74     1.425   .     A
C63    C64     1.429   .     A
C63    C70     1.425   .     A
C64    C65     1.431   .     A
C64    C67     1.425   .     A
C65    C66     1.429   .     A
C65    C78     1.425   .     A
C66    C75     1.425   .     A
C67    C68     1.395   .     A
C67    H25     1.073   .     S
C68    C69     1.402   .     A
C68    C86     1.408   .     A
C69    C70     1.395   .     A
C69    C83     1.408   .     A
C70    H26     1.073   .     S
C71    C72     1.395   .     A
C71    H27     1.073   .     S
C72    C73     1.405   .     A
C72    C90     1.410   .     A
C73    C74     1.395   .     A
C73    C87     1.410   .     A
C74    H28     1.073   .     S
C75    C76     1.395   .     A
C75    H29     1.073   .     S
C76    C77     1.405   .     A
C76    C82     1.410   .     A
C77    C78     1.395   .     A
C77    C79     1.410   .     A
C78    H30     1.073   .     S
C79    C80     1.396   .     A
C79    H31     1.084   .     S
C80    C81     1.372   .     A
C80    O13     1.381   .     S
C81    C82     1.396   .     A
C81    O14     1.381   .     S
C82    H32     1.084   .     S
C83    C84     1.396   .     A
C83    H33     1.084   .     S
C84    C85     1.410   .     A
C84    O15     1.395   .     S
C85    C86     1.396   .     A
C85    O16     1.395   .     S
C86    H34     1.084   .     S
O13    Cu7     1.812   1_545 S
O14    Cu7     1.812   1_545 S
O15    Zn3     1.801   .     S
O16    Zn3     1.801   .     S
C87    C88     1.396   .     A
C87    H35     1.084   .     S
C88    C89     1.372   .     A
C88    O17     1.381   .     S
C89    C90     1.396   .     A
C89    O18     1.381   .     S
C90    H36     1.084   .     S
O17    Cu3     1.812   .     S
O18    Cu3     1.812   .     S
C91    C92     1.429   .     A
C91    C96     1.431   .     A
C91    C101    1.425   .     A
C92    C93     1.431   1_655 A
C92    C104    1.425   .     A
C93    C92     1.431   1_455 A
C93    C94     1.429   .     A
C93    C100    1.425   .     A
C94    C95     1.431   .     A
C94    C97     1.425   .     A
C95    C96     1.429   1_455 A
C95    C108    1.425   .     A
C96    C95     1.429   1_655 A
C96    C105    1.425   .     A
C97    C98     1.395   .     A
C97    H37     1.073   .     S
C98    C99     1.405   .     A
C98    C116    1.410   .     A
C99    C100    1.395   .     A
C99    C113    1.410   .     A
C100   H38     1.073   .     S
C101   C102    1.395   .     A
C101   H39     1.073   .     S
C102   C103    1.405   .     A
C102   C120    1.410   .     A
C103   C104    1.395   .     A
C103   C117    1.410   .     A
C104   H40     1.073   .     S
C105   C106    1.395   .     A
C105   H41     1.073   .     S
C106   C107    1.402   1_655 A
C106   C112    1.408   .     A
C107   C106    1.402   1_455 A
C107   C108    1.395   .     A
C107   C109    1.408   .     A
C108   H42     1.073   .     S
C109   C110    1.396   .     A
C109   H43     1.084   .     S
C110   C111    1.410   1_455 A
C110   O19     1.395   .     S
C111   C110    1.410   1_655 A
C111   C112    1.396   .     A
C111   O20     1.395   .     S
C112   H44     1.084   .     S
C113   C114    1.396   .     A
C113   H45     1.084   .     S
C114   C115    1.372   .     A
C114   O21     1.381   .     S
C115   C116    1.396   .     A
C115   O22     1.381   .     S
C116   H46     1.084   .     S
O19    Zn4     1.801   .     S
O20    Zn4     1.801   1_655 S
O21    Cu5     1.812   .     S
O22    Cu5     1.812   .     S
C117   C118    1.396   .     A
C117   H47     1.084   .     S
C118   C119    1.372   .     A
C118   O23     1.381   .     S
C119   C120    1.396   .     A
C119   O24     1.381   .     S
C120   H48     1.084   .     S
O23    Cu4     1.812   .     S
O24    Cu4     1.812   .     S
C121   C122    1.429   .     A
C121   C126    1.431   .     A
C121   C131    1.425   .     A
C122   C123    1.431   .     A
C122   C134    1.425   .     A
C123   C124    1.429   .     A
C123   C130    1.425   .     A
C124   C125    1.431   .     A
C124   C127    1.425   .     A
C125   C126    1.429   .     A
C125   C138    1.425   .     A
C126   C135    1.425   .     A
C127   C128    1.395   .     A
C127   H49     1.073   .     S
C128   C129    1.405   .     A
C128   C146    1.410   .     A
C129   C130    1.395   .     A
C129   C143    1.410   .     A
C130   H50     1.073   .     S
C131   C132    1.395   .     A
C131   H51     1.073   .     S
C132   C133    1.402   .     A
C132   C150    1.408   .     A
C133   C134    1.395   .     A
C133   C147    1.408   .     A
C134   H52     1.073   .     S
C135   C136    1.395   .     A
C135   H53     1.073   .     S
C136   C137    1.405   .     A
C136   C142    1.410   .     A
C137   C138    1.395   .     A
C137   C139    1.410   .     A
C138   H54     1.073   .     S
C139   C140    1.396   .     A
C139   H55     1.084   1_556 S
C140   C141    1.372   .     A
C140   O25     1.381   1_556 S
C141   C142    1.396   .     A
C141   O26     1.381   .     S
C142   H56     1.084   .     S
C143   C144    1.396   .     A
C143   H57     1.084   .     S
C144   C145    1.372   .     A
C144   O27     1.381   .     S
C145   C146    1.396   .     A
C145   O28     1.381   1_556 S
C146   H58     1.084   1_556 S
H55    C139    1.084   1_554 S
O25    C140    1.381   1_554 S
O25    Cu1     1.812   .     S
O26    Cu1     1.812   1_556 S
O27    Cu8     1.812   1_546 S
O28    C145    1.381   1_554 S
O28    Cu8     1.812   1_545 S
H58    C146    1.084   1_554 S
C147   C148    1.396   .     A
C147   H59     1.084   .     S
C148   C149    1.410   .     A
C148   O29     1.395   .     S
C149   C150    1.396   .     A
C149   O30     1.395   .     S
C150   H60     1.084   .     S
O29    Zn4     1.801   .     S
O30    Zn4     1.801   .     S
C151   C152    1.429   .     A
C151   C156    1.431   .     A
C151   C161    1.425   .     A
C152   C153    1.431   1_655 A
C152   C164    1.425   .     A
C153   C152    1.431   1_455 A
C153   C154    1.429   .     A
C153   C160    1.425   .     A
C154   C155    1.431   .     A
C154   C157    1.425   .     A
C155   C156    1.429   1_455 A
C155   C168    1.425   .     A
C156   C155    1.429   1_655 A
C156   C165    1.425   .     A
C157   C158    1.395   .     A
C157   H61     1.073   .     S
C158   C159    1.405   .     A
C158   C176    1.410   .     A
C159   C160    1.395   .     A
C159   C173    1.410   .     A
C160   H62     1.073   .     S
C161   C162    1.395   .     A
C161   H63     1.073   .     S
C162   C163    1.405   .     A
C162   C180    1.410   .     A
C163   C164    1.395   .     A
C163   C177    1.410   .     A
C164   H64     1.073   .     S
C165   C166    1.395   .     A
C165   H65     1.073   .     S
C166   C167    1.402   1_655 A
C166   C172    1.408   .     A
C167   C166    1.402   1_455 A
C167   C168    1.395   .     A
C167   C169    1.408   .     A
C168   H66     1.073   .     S
C169   C170    1.396   .     A
C169   H67     1.084   .     S
C170   C171    1.410   1_455 A
C170   O31     1.395   .     S
C171   C170    1.410   1_655 A
C171   C172    1.396   .     A
C171   O32     1.395   .     S
C172   H68     1.084   .     S
C173   C174    1.396   .     A
C173   H69     1.084   .     S
C174   C175    1.372   .     A
C174   O33     1.381   .     S
C175   C176    1.396   .     A
C175   O34     1.381   .     S
C176   H70     1.084   .     S
O31    Zn1     1.801   .     S
O32    Zn1     1.801   1_655 S
O33    Cu6     1.812   .     S
O34    Cu6     1.812   .     S
C177   C178    1.396   .     A
C177   H71     1.084   .     S
C178   C179    1.372   .     A
C178   O35     1.381   .     S
C179   C180    1.396   .     A
C179   O36     1.381   .     S
C180   H72     1.084   .     S
O35    Cu2     1.812   .     S
O36    Cu2     1.812   .     S
C181   C182    1.429   .     A
C181   C186    1.431   .     A
C181   C191    1.425   .     A
C182   C183    1.431   .     A
C182   C194    1.425   .     A
C183   C184    1.429   .     A
C183   C190    1.425   .     A
C184   C185    1.431   .     A
C184   C187    1.425   .     A
C185   C186    1.429   .     A
C185   C198    1.425   .     A
C186   C195    1.425   .     A
C187   C188    1.395   .     A
C187   H73     1.073   .     S
C188   C189    1.405   .     A
C188   C206    1.410   .     A
C189   C190    1.395   .     A
C189   C203    1.410   .     A
C190   H74     1.073   .     S
C191   C192    1.395   .     A
C191   H75     1.073   .     S
C192   C193    1.402   .     A
C192   C210    1.408   .     A
C193   C194    1.395   .     A
C193   C207    1.408   .     A
C194   H76     1.073   .     S
C195   C196    1.395   .     A
C195   H77     1.073   .     S
C196   C197    1.405   .     A
C196   C202    1.410   .     A
C197   C198    1.395   .     A
C197   C199    1.410   .     A
C198   H78     1.073   .     S
C199   C200    1.396   .     A
C199   H79     1.084   .     S
C200   C201    1.372   .     A
C200   O37     1.381   .     S
C201   C202    1.396   .     A
C201   O38     1.381   .     S
C202   H80     1.084   .     S
C203   C204    1.396   .     A
C203   H81     1.084   .     S
C204   C205    1.372   .     A
C204   O39     1.381   .     S
C205   C206    1.396   .     A
C205   O40     1.381   .     S
C206   H82     1.084   .     S
O37    Cu7     1.812   .     S
O38    Cu7     1.812   .     S
O39    Cu3     1.812   .     S
O40    Cu3     1.812   .     S
C207   C208    1.396   .     A
C207   H83     1.084   .     S
C208   C209    1.410   .     A
C208   O41     1.395   .     S
C209   C210    1.396   .     A
C209   O42     1.395   .     S
C210   H84     1.084   .     S
O41    Zn2     1.801   .     S
O42    Zn2     1.801   .     S
C211   C212    1.429   .     A
C211   C216    1.431   .     A
C211   C221    1.425   .     A
C212   C213    1.431   .     A
C212   C224    1.425   .     A
C213   C214    1.429   .     A
C213   C220    1.425   .     A
C214   C215    1.431   .     A
C214   C217    1.425   .     A
C215   C216    1.429   .     A
C215   C228    1.425   .     A
C216   C225    1.425   .     A
C217   C218    1.395   .     A
C217   H85     1.073   .     S
C218   C219    1.405   .     A
C218   C236    1.410   .     A
C219   C220    1.395   .     A
C219   C233    1.410   .     A
C220   H86     1.073   .     S
C221   C222    1.395   .     A
C221   H87     1.073   .     S
C222   C223    1.405   .     A
C222   C240    1.410   .     A
C223   C224    1.395   .     A
C223   C237    1.410   .     A
C224   H88     1.073   .     S
C225   C226    1.395   .     A
C225   H89     1.073   .     S
C226   C227    1.402   .     A
C226   C232    1.408   .     A
C227   C228    1.395   .     A
C227   C229    1.408   .     A
C228   H90     1.073   .     S
C229   C230    1.396   .     A
C229   H91     1.084   .     S
C230   C231    1.410   .     A
C230   O43     1.395   .     S
C231   C232    1.396   .     A
C231   O44     1.395   .     S
C232   H92     1.084   .     S
C233   C234    1.396   .     A
C233   H93     1.084   .     S
C234   C235    1.372   .     A
C234   O45     1.381   .     S
C235   C236    1.396   .     A
C235   O46     1.381   .     S
C236   H94     1.084   .     S
O43    Zn3     1.801   .     S
O44    Zn3     1.801   .     S
O45    Cu4     1.812   .     S
O46    Cu4     1.812   .     S
C237   C238    1.396   .     A
C237   H95     1.084   .     S
C238   C239    1.372   .     A
C238   O47     1.381   .     S
C239   C240    1.396   .     A
C239   O48     1.381   .     S
C240   H96     1.084   .     S
O47    Cu5     1.812   .     S
O48    Cu5     1.812   .     S
Cu1    O2      1.812   1_554 S
Cu1    O26     1.812   1_554 S
Cu7    O13     1.812   1_565 S
Cu7    O14     1.812   1_565 S
Cu8    O28     1.812   1_565 S
Cu8    O27     1.812   1_564 S
Cu8    O6      1.812   1_554 S
Zn1    O32     1.801   1_455 S
Zn4    O20     1.801   1_455 S
