data_image0
_chemical_formula_structural       Fe6C18HO2H2O2H2O2HC18HO2H2O2H2O2HC18HO2H2O2H2O2HC18HO2H2O2H2O2HC18HO2H2O2H2O2HC18HO2H2O2H2O2HFe6C6HO2HO2C6HO2HO2C6HO2HO2Cu3C6HO2HO2C6HO2HO2C6HO2HO2C6O2HO2HCuC6O2HO2HCuC6O2HO2HCuC6HO2HO2C6HO2HO2C6HO2HO2C6HO2HO2C6HO2HO2C6HO2HO2C6O2HO2HCuC6O2HO2HCuC6O2HO2HCuC6O2HO2HCuC6O2HO2HCuC6O2HO2HCuC6O2HO2HCuC6O2HO2HCuC6O2HO2HCu
_chemical_formula_sum              "Fe12 C252 H84 O132 Cu15"
_cell_length_a       50.8852
_cell_length_b       50.8849
_cell_length_c       30.0658
_cell_angle_alpha    90.0114
_cell_angle_beta     89.9917
_cell_angle_gamma    119.974

_space_group_name_H-M_alt    "P 1"
_space_group_IT_number       1

loop_
  _space_group_symop_operation_xyz
  'x, y, z'

loop_
  _atom_site_type_symbol
  _atom_site_label
  _atom_site_symmetry_multiplicity
  _atom_site_fract_x
  _atom_site_fract_y
  _atom_site_fract_z
  _atom_site_occupancy
  Fe  Fe1       1.0  0.53209  0.06618  0.07811  1.0000
  Fe  Fe2       1.0  0.00302  0.38761  0.07809  1.0000
  Fe  Fe3       1.0  0.68163  0.53710  0.07802  1.0000
  Fe  Fe4       1.0  0.68156  0.06616  0.07805  1.0000
  Fe  Fe5       1.0  0.00321  0.53719  0.07803  1.0000
  Fe  Fe6       1.0  0.53221  0.38771  0.07810  1.0000
  C   C1        1.0  0.09317  0.32692  0.50991  1.0000
  C   C2        1.0  0.11541  0.32374  0.53272  1.0000
  C   C3        1.0  0.14084  0.32695  0.50992  1.0000
  C   C4        1.0  0.14404  0.33335  0.46431  1.0000
  C   C5        1.0  0.12180  0.33653  0.44150  1.0000
  C   C6        1.0  0.09637  0.33332  0.46430  1.0000
  C   C7        1.0  0.16947  0.33656  0.44151  1.0000
  C   C8        1.0  0.19171  0.33338  0.46432  1.0000
  C   C9        1.0  0.18851  0.32698  0.50993  1.0000
  C   C10       1.0  0.16308  0.32377  0.53273  1.0000
  C   C11       1.0  0.06774  0.32371  0.53271  1.0000
  C   C12       1.0  0.06454  0.31732  0.57832  1.0000
  C   C13       1.0  0.08678  0.31414  0.60113  1.0000
  C   C14       1.0  0.11221  0.31735  0.57833  1.0000
  C   C15       1.0  0.07413  0.33650  0.44149  1.0000
  C   C16       1.0  0.07733  0.34289  0.39588  1.0000
  C   C17       1.0  0.10276  0.34610  0.37308  1.0000
  C   C18       1.0  0.12500  0.34292  0.39589  1.0000
  H   H1        1.0  0.17187  0.34135  0.40730  1.0000
  O   O1        1.0  0.21460  0.33627  0.44380  1.0000
  O   O2        1.0  0.20852  0.32412  0.53046  1.0000
  H   H2        1.0  0.16068  0.31898  0.56694  1.0000
  H   H3        1.0  0.05106  0.32610  0.51560  1.0000
  O   O3        1.0  0.04165  0.31443  0.59884  1.0000
  O   O4        1.0  0.08390  0.30839  0.64218  1.0000
  H   H4        1.0  0.12889  0.31496  0.59544  1.0000
  H   H5        1.0  0.05506  0.33409  0.45859  1.0000
  O   O5        1.0  0.05732  0.34575  0.37535  1.0000
  O   O6        1.0  0.10564  0.35185  0.33203  1.0000
  H   H6        1.0  0.14407  0.34533  0.37879  1.0000
  C   C19       1.0  0.73255  0.70688  0.44151  1.0000
  C   C20       1.0  0.73574  0.68465  0.46431  1.0000
  C   C21       1.0  0.74213  0.68785  0.50992  1.0000
  C   C22       1.0  0.74534  0.71327  0.53273  1.0000
  C   C23       1.0  0.74215  0.73551  0.50993  1.0000
  C   C24       1.0  0.73576  0.73231  0.46432  1.0000
  C   C25       1.0  0.75173  0.71647  0.57834  1.0000
  C   C26       1.0  0.75492  0.69424  0.60115  1.0000
  C   C27       1.0  0.75171  0.66881  0.57834  1.0000
  C   C28       1.0  0.74532  0.66561  0.53273  1.0000
  C   C29       1.0  0.72616  0.70369  0.39590  1.0000
  C   C30       1.0  0.72296  0.67826  0.37309  1.0000
  C   C31       1.0  0.72615  0.65603  0.39589  1.0000
  C   C32       1.0  0.73254  0.65922  0.44150  1.0000
  C   C33       1.0  0.73257  0.75454  0.44151  1.0000
  C   C34       1.0  0.73577  0.77997  0.46432  1.0000
  C   C35       1.0  0.74216  0.78317  0.50993  1.0000
  C   C36       1.0  0.74535  0.76093  0.53274  1.0000
  H   H7        1.0  0.75413  0.73554  0.59545  1.0000
  O   O7        1.0  0.76067  0.69711  0.64220  1.0000
  O   O8        1.0  0.75458  0.64880  0.59886  1.0000
  H   H8        1.0  0.74292  0.64654  0.51562  1.0000
  H   H9        1.0  0.72377  0.72036  0.37879  1.0000
  O   O9        1.0  0.71721  0.67538  0.33204  1.0000
  O   O10       1.0  0.72327  0.63314  0.37536  1.0000
  H   H10       1.0  0.73493  0.64255  0.45861  1.0000
  H   H11       1.0  0.72777  0.75215  0.40730  1.0000
  O   O11       1.0  0.73290  0.79998  0.44380  1.0000
  O   O12       1.0  0.74504  0.80605  0.53046  1.0000
  H   H12       1.0  0.75014  0.76333  0.56694  1.0000
  C   C37       1.0  0.35593  0.95377  0.53279  1.0000
  C   C38       1.0  0.38135  0.97599  0.50999  1.0000
  C   C39       1.0  0.38455  0.97279  0.46438  1.0000
  C   C40       1.0  0.36233  0.94738  0.44157  1.0000
  C   C41       1.0  0.33691  0.92515  0.46437  1.0000
  C   C42       1.0  0.33372  0.92835  0.50998  1.0000
  C   C43       1.0  0.36553  0.94418  0.39595  1.0000
  C   C44       1.0  0.39094  0.96640  0.37315  1.0000
  C   C45       1.0  0.41316  0.99182  0.39596  1.0000
  C   C46       1.0  0.40996  0.99501  0.44157  1.0000
  C   C47       1.0  0.35273  0.95697  0.57841  1.0000
  C   C48       1.0  0.37495  0.98238  0.60122  1.0000
  C   C49       1.0  0.40037  0.00460  0.57841  1.0000
  C   C50       1.0  0.40356  0.00141  0.53280  1.0000
  C   C51       1.0  0.30830  0.90613  0.53279  1.0000
  C   C52       1.0  0.28608  0.88071  0.50998  1.0000
  C   C53       1.0  0.28928  0.87752  0.46437  1.0000
  C   C54       1.0  0.31470  0.89974  0.44156  1.0000
  H   H13       1.0  0.34886  0.92512  0.37885  1.0000
  O   O13       1.0  0.39382  0.96352  0.33210  1.0000
  O   O14       1.0  0.43603  0.01182  0.37543  1.0000
  H   H14       1.0  0.42662  0.01408  0.45868  1.0000
  H   H15       1.0  0.33367  0.94030  0.59551  1.0000
  O   O15       1.0  0.37207  0.98526  0.64227  1.0000
  O   O16       1.0  0.42036  0.02748  0.59894  1.0000
  H   H16       1.0  0.42263  0.01807  0.51570  1.0000
  H   H17       1.0  0.30590  0.90853  0.56700  1.0000
  O   O17       1.0  0.26321  0.86071  0.53050  1.0000
  O   O18       1.0  0.26929  0.85464  0.44384  1.0000
  H   H18       1.0  0.31710  0.89734  0.40735  1.0000
  C   C55       1.0  0.35609  0.32414  0.53283  1.0000
  C   C56       1.0  0.38152  0.32735  0.51003  1.0000
  C   C57       1.0  0.38472  0.33374  0.46442  1.0000
  C   C58       1.0  0.36248  0.33692  0.44161  1.0000
  C   C59       1.0  0.33705  0.33371  0.46441  1.0000
  C   C60       1.0  0.33385  0.32732  0.51002  1.0000
  C   C61       1.0  0.36568  0.34331  0.39600  1.0000
  C   C62       1.0  0.39111  0.34653  0.37320  1.0000
  C   C63       1.0  0.41335  0.34335  0.39601  1.0000
  C   C64       1.0  0.41015  0.33695  0.44162  1.0000
  C   C65       1.0  0.35289  0.31775  0.57844  1.0000
  C   C66       1.0  0.37513  0.31457  0.60125  1.0000
  C   C67       1.0  0.40056  0.31778  0.57845  1.0000
  C   C68       1.0  0.40376  0.32417  0.53284  1.0000
  C   C69       1.0  0.30842  0.32411  0.53282  1.0000
  C   C70       1.0  0.28618  0.32729  0.51001  1.0000
  C   C71       1.0  0.28938  0.33368  0.46440  1.0000
  C   C72       1.0  0.31481  0.33689  0.44160  1.0000
  H   H19       1.0  0.34900  0.34570  0.37889  1.0000
  O   O19       1.0  0.39399  0.35228  0.33215  1.0000
  O   O20       1.0  0.43624  0.34624  0.37549  1.0000
  H   H20       1.0  0.42683  0.33457  0.45873  1.0000
  H   H21       1.0  0.33382  0.31534  0.59554  1.0000
  O   O21       1.0  0.37225  0.30882  0.64230  1.0000
  O   O22       1.0  0.42057  0.31492  0.59898  1.0000
  H   H22       1.0  0.42283  0.32658  0.51574  1.0000
  H   H23       1.0  0.30602  0.31932  0.56703  1.0000
  O   O23       1.0  0.26329  0.32440  0.53054  1.0000
  O   O24       1.0  0.26937  0.33654  0.44387  1.0000
  H   H24       1.0  0.31721  0.34169  0.40739  1.0000
  C   C73       1.0  0.74225  0.97603  0.50989  1.0000
  C   C74       1.0  0.74545  0.95381  0.53269  1.0000
  C   C75       1.0  0.74225  0.92838  0.50989  1.0000
  C   C76       1.0  0.73586  0.92518  0.46428  1.0000
  C   C77       1.0  0.73266  0.94741  0.44147  1.0000
  C   C78       1.0  0.73586  0.97283  0.46428  1.0000
  C   C79       1.0  0.73267  0.89976  0.44147  1.0000
  C   C80       1.0  0.73587  0.87753  0.46428  1.0000
  C   C81       1.0  0.74226  0.88073  0.50989  1.0000
  C   C82       1.0  0.74545  0.90616  0.53269  1.0000
  C   C83       1.0  0.74544  0.00146  0.53269  1.0000
  C   C84       1.0  0.75183  0.00466  0.57831  1.0000
  C   C85       1.0  0.75503  0.98243  0.60111  1.0000
  C   C86       1.0  0.75184  0.95701  0.57831  1.0000
  C   C87       1.0  0.73266  0.99506  0.44147  1.0000
  C   C88       1.0  0.72626  0.99186  0.39586  1.0000
  C   C89       1.0  0.72307  0.96643  0.37306  1.0000
  C   C90       1.0  0.72627  0.94421  0.39586  1.0000
  H   H25       1.0  0.72787  0.89736  0.40726  1.0000
  O   O25       1.0  0.73299  0.85465  0.44375  1.0000
  O   O26       1.0  0.74514  0.86073  0.53041  1.0000
  H   H26       1.0  0.75025  0.90856  0.56690  1.0000
  H   H27       1.0  0.74304  0.01813  0.51559  1.0000
  O   O27       1.0  0.75471  0.02754  0.59883  1.0000
  O   O28       1.0  0.76079  0.98531  0.64216  1.0000
  H   H28       1.0  0.75424  0.94034  0.59541  1.0000
  H   H29       1.0  0.73505  0.01413  0.45858  1.0000
  O   O29       1.0  0.72338  0.01186  0.37534  1.0000
  O   O30       1.0  0.71732  0.96355  0.33201  1.0000
  H   H30       1.0  0.72387  0.92514  0.37876  1.0000
  C   C91       1.0  0.09656  0.68474  0.46433  1.0000
  C   C92       1.0  0.12198  0.70696  0.44153  1.0000
  C   C93       1.0  0.14419  0.73238  0.46434  1.0000
  C   C94       1.0  0.14099  0.73557  0.50995  1.0000
  C   C95       1.0  0.11558  0.71335  0.53276  1.0000
  C   C96       1.0  0.09336  0.68793  0.50995  1.0000
  C   C97       1.0  0.16320  0.76099  0.53276  1.0000
  C   C98       1.0  0.18862  0.78321  0.50996  1.0000
  C   C99       1.0  0.19182  0.78002  0.46435  1.0000
  C   C100      1.0  0.16960  0.75460  0.44154  1.0000
  C   C101      1.0  0.07435  0.65932  0.44152  1.0000
  C   C102      1.0  0.07755  0.65612  0.39591  1.0000
  C   C103      1.0  0.10296  0.67835  0.37310  1.0000
  C   C104      1.0  0.12517  0.70376  0.39592  1.0000
  C   C105      1.0  0.06795  0.66571  0.53275  1.0000
  C   C106      1.0  0.06475  0.66890  0.57836  1.0000
  C   C107      1.0  0.08696  0.69432  0.60117  1.0000
  C   C108      1.0  0.11238  0.71655  0.57837  1.0000
  H   H31       1.0  0.16080  0.76339  0.56697  1.0000
  O   O31       1.0  0.20861  0.80609  0.53049  1.0000
  O   O32       1.0  0.21469  0.80002  0.44382  1.0000
  H   H32       1.0  0.17200  0.75220  0.40733  1.0000
  H   H33       1.0  0.05529  0.64265  0.45862  1.0000
  O   O33       1.0  0.05755  0.63325  0.37538  1.0000
  O   O34       1.0  0.10584  0.67547  0.33205  1.0000
  H   H34       1.0  0.14424  0.72043  0.37881  1.0000
  H   H35       1.0  0.05129  0.64664  0.51564  1.0000
  O   O35       1.0  0.04187  0.64890  0.59889  1.0000
  O   O36       1.0  0.08408  0.69720  0.64222  1.0000
  H   H36       1.0  0.12904  0.73561  0.59548  1.0000
  Fe  Fe7       1.0  0.79627  0.59439  0.89615  1.0000
  Fe  Fe8       1.0  0.47474  0.12352  0.89629  1.0000
  Fe  Fe9       1.0  0.94566  0.27296  0.89621  1.0000
  Fe  Fe10      1.0  0.94582  0.59451  0.89621  1.0000
  Fe  Fe11      1.0  0.47487  0.27307  0.89625  1.0000
  Fe  Fe12      1.0  0.79623  0.12356  0.89619  1.0000
  C   C109      1.0  0.62267  0.09788  0.06473  1.0000
  C   C110      1.0  0.59108  0.08234  0.06953  1.0000
  C   C111      1.0  0.57555  0.05126  0.07911  1.0000
  C   C112      1.0  0.59161  0.03572  0.08388  1.0000
  C   C113      1.0  0.62320  0.05125  0.07908  1.0000
  C   C114      1.0  0.63873  0.08233  0.06951  1.0000
  H   H37       1.0  0.63432  0.12119  0.05755  1.0000
  O   O37       1.0  0.57663  0.09633  0.06523  1.0000
  O   O38       1.0  0.54712  0.03728  0.08343  1.0000
  H   H38       1.0  0.57996  0.01240  0.09106  1.0000
  O   O39       1.0  0.63765  0.03726  0.08338  1.0000
  O   O40       1.0  0.66716  0.09631  0.06519  1.0000
  C   C115      1.0  0.03357  0.47758  0.08387  1.0000
  C   C116      1.0  0.01799  0.44599  0.07910  1.0000
  C   C117      1.0  0.98691  0.43049  0.06952  1.0000
  C   C118      1.0  0.97140  0.44659  0.06471  1.0000
  C   C119      1.0  0.98698  0.47818  0.06949  1.0000
  C   C120      1.0  0.01806  0.49368  0.07907  1.0000
  H   H39       1.0  0.05688  0.48920  0.09106  1.0000
  O   O41       1.0  0.03194  0.43150  0.08342  1.0000
  O   O42       1.0  0.97289  0.40206  0.06522  1.0000
  H   H40       1.0  0.94809  0.43497  0.05753  1.0000
  O   O43       1.0  0.97303  0.49267  0.06517  1.0000
  O   O44       1.0  0.03208  0.52211  0.08337  1.0000
  C   C121      1.0  0.62278  0.44653  0.06469  1.0000
  C   C122      1.0  0.59119  0.43049  0.06951  1.0000
  C   C123      1.0  0.57565  0.44604  0.07910  1.0000
  C   C124      1.0  0.59170  0.47764  0.08388  1.0000
  C   C125      1.0  0.62329  0.49367  0.07906  1.0000
  C   C126      1.0  0.63883  0.47812  0.06947  1.0000
  H   H41       1.0  0.63444  0.43486  0.05750  1.0000
  O   O45       1.0  0.57675  0.40206  0.06521  1.0000
  O   O46       1.0  0.54722  0.43161  0.08343  1.0000
  H   H42       1.0  0.58005  0.48930  0.09107  1.0000
  O   O47       1.0  0.63773  0.52211  0.08336  1.0000
  O   O48       1.0  0.66726  0.49256  0.06514  1.0000
  Cu  Cu1       1.0  0.23894  0.33033  0.48717  1.0000
  Cu  Cu2       1.0  0.73902  0.83035  0.48711  1.0000
  Cu  Cu3       1.0  0.23895  0.83037  0.48716  1.0000
  C   C127      1.0  0.88623  0.62489  0.89038  1.0000
  C   C128      1.0  0.85464  0.60933  0.89515  1.0000
  C   C129      1.0  0.83913  0.57824  0.90473  1.0000
  C   C130      1.0  0.85522  0.56273  0.90953  1.0000
  C   C131      1.0  0.88681  0.57829  0.90475  1.0000
  C   C132      1.0  0.90232  0.60937  0.89518  1.0000
  H   H43       1.0  0.89786  0.64820  0.88319  1.0000
  O   O49       1.0  0.84016  0.62329  0.89083  1.0000
  O   O50       1.0  0.81070  0.56424  0.90902  1.0000
  H   H44       1.0  0.84359  0.53942  0.91671  1.0000
  O   O51       1.0  0.90129  0.56433  0.90907  1.0000
  O   O52       1.0  0.93075  0.62338  0.89088  1.0000
  C   C133      1.0  0.50652  0.21412  0.90962  1.0000
  C   C134      1.0  0.49095  0.18253  0.90484  1.0000
  C   C135      1.0  0.45987  0.16702  0.89526  1.0000
  C   C136      1.0  0.44436  0.18311  0.89046  1.0000
  C   C137      1.0  0.45992  0.21470  0.89524  1.0000
  C   C138      1.0  0.49100  0.23021  0.90482  1.0000
  H   H45       1.0  0.52983  0.22575  0.91680  1.0000
  O   O53       1.0  0.50492  0.16805  0.90916  1.0000
  O   O54       1.0  0.44586  0.13859  0.89096  1.0000
  H   H46       1.0  0.42105  0.17148  0.88327  1.0000
  O   O55       1.0  0.44596  0.22918  0.89092  1.0000
  O   O56       1.0  0.50501  0.25864  0.90912  1.0000
  C   C139      1.0  0.88616  0.18303  0.89039  1.0000
  C   C140      1.0  0.85457  0.16699  0.89518  1.0000
  C   C141      1.0  0.83903  0.18255  0.90477  1.0000
  C   C142      1.0  0.85508  0.21414  0.90957  1.0000
  C   C143      1.0  0.88667  0.23017  0.90478  1.0000
  C   C144      1.0  0.90221  0.21462  0.89519  1.0000
  H   H47       1.0  0.89782  0.17136  0.88320  1.0000
  O   O57       1.0  0.84013  0.13856  0.89086  1.0000
  O   O58       1.0  0.81060  0.16811  0.90908  1.0000
  H   H48       1.0  0.84343  0.22580  0.91676  1.0000
  O   O59       1.0  0.90112  0.25861  0.90910  1.0000
  O   O60       1.0  0.93064  0.22905  0.89088  1.0000
  C   C145      1.0  0.51263  0.05563  0.16816  1.0000
  C   C146      1.0  0.48485  0.03281  0.14110  1.0000
  C   C147      1.0  0.45514  0.01072  0.16503  1.0000
  C   C148      1.0  0.45313  0.01139  0.21608  1.0000
  C   C149      1.0  0.48098  0.03427  0.24327  1.0000
  C   C150      1.0  0.51067  0.05634  0.21921  1.0000
  O   O61       1.0  0.54178  0.07730  0.14469  1.0000
  O   O62       1.0  0.48677  0.03212  0.09105  1.0000
  H   H49       1.0  0.43460  0.99385  0.14493  1.0000
  O   O63       1.0  0.42389  0.98965  0.23944  1.0000
  O   O64       1.0  0.47919  0.03508  0.29343  1.0000
  H   H50       1.0  0.53123  0.07323  0.23925  1.0000
  Cu  Cu4       1.0  0.43292  0.99990  0.31043  1.0000
  C   C151      1.0  0.03631  0.37369  0.14116  1.0000
  C   C152      1.0  0.01350  0.37869  0.16820  1.0000
  C   C153      1.0  0.01271  0.37604  0.21924  1.0000
  C   C154      1.0  0.03474  0.36839  0.24336  1.0000
  C   C155      1.0  0.05763  0.36336  0.21627  1.0000
  C   C156      1.0  0.05835  0.36603  0.16521  1.0000
  O   O65       1.0  0.03708  0.37629  0.09109  1.0000
  O   O66       1.0  0.99188  0.38620  0.14462  1.0000
  H   H51       1.0  0.99580  0.37976  0.23918  1.0000
  O   O67       1.0  0.03388  0.36581  0.29350  1.0000
  O   O68       1.0  0.07935  0.35583  0.23972  1.0000
  H   H52       1.0  0.07524  0.36232  0.14520  1.0000
  Cu  Cu5       1.0  0.06907  0.35477  0.31072  1.0000
  C   C157      1.0  0.69054  0.55656  0.16807  1.0000
  C   C158      1.0  0.69550  0.58435  0.14102  1.0000
  C   C159      1.0  0.70311  0.61406  0.16496  1.0000
  C   C160      1.0  0.70578  0.61607  0.21601  1.0000
  C   C161      1.0  0.70082  0.58821  0.24319  1.0000
  C   C162      1.0  0.69321  0.55852  0.21911  1.0000
  O   O69       1.0  0.68308  0.52741  0.14458  1.0000
  O   O70       1.0  0.69289  0.58243  0.09097  1.0000
  H   H53       1.0  0.70676  0.63460  0.14487  1.0000
  O   O71       1.0  0.71326  0.64531  0.23938  1.0000
  O   O72       1.0  0.70340  0.58999  0.29335  1.0000
  H   H54       1.0  0.68954  0.53795  0.23915  1.0000
  Cu  Cu6       1.0  0.71437  0.63627  0.31036  1.0000
  C   C163      1.0  0.98572  0.35324  0.95497  1.0000
  C   C164      1.0  0.97047  0.32275  0.94192  1.0000
  C   C165      1.0  0.95898  0.29980  0.97410  1.0000
  C   C166      1.0  0.96275  0.30733  0.01934  1.0000
  C   C167      1.0  0.97800  0.33782  0.03239  1.0000
  C   C168      1.0  0.98949  0.36077  0.00010  1.0000
  H   H55       1.0  0.99434  0.37045  0.93083  1.0000
  O   O73       1.0  0.96708  0.31596  0.90121  1.0000
  O   O74       1.0  0.94525  0.27236  0.96236  1.0000
  H   H56       1.0  0.95413  0.29012  0.04348  1.0000
  O   O75       1.0  0.98140  0.34461  0.07310  1.0000
  O   O76       1.0  0.00322  0.38821  0.01195  1.0000
  C   C169      1.0  0.76190  0.57687  0.01926  1.0000
  C   C170      1.0  0.73141  0.56175  0.03231  1.0000
  C   C171      1.0  0.70846  0.55052  0.00010  1.0000
  C   C172      1.0  0.71600  0.55441  0.95489  1.0000
  C   C173      1.0  0.74648  0.56952  0.94184  1.0000
  C   C174      1.0  0.76944  0.58075  0.97403  1.0000
  H   H57       1.0  0.77911  0.58529  0.04340  1.0000
  O   O77       1.0  0.72463  0.55826  0.07302  1.0000
  O   O78       1.0  0.68102  0.53692  0.01187  1.0000
  H   H58       1.0  0.69878  0.54598  0.93076  1.0000
  O   O79       1.0  0.75327  0.57302  0.90113  1.0000
  O   O80       1.0  0.79687  0.59436  0.96228  1.0000
  C   C175      1.0  0.49204  0.10643  0.01940  1.0000
  C   C176      1.0  0.48826  0.11020  0.97417  1.0000
  C   C177      1.0  0.49973  0.09871  0.94197  1.0000
  C   C178      1.0  0.51498  0.08346  0.95500  1.0000
  C   C179      1.0  0.51876  0.07970  0.00010  1.0000
  C   C180      1.0  0.50729  0.09118  0.03243  1.0000
  H   H59       1.0  0.48343  0.11504  0.04355  1.0000
  O   O81       1.0  0.47453  0.12392  0.96244  1.0000
  O   O82       1.0  0.49633  0.10211  0.90126  1.0000
  H   H60       1.0  0.52359  0.07485  0.93085  1.0000
  O   O83       1.0  0.53249  0.06597  0.01196  1.0000
  O   O84       1.0  0.51069  0.08779  0.07314  1.0000
  C   C181      1.0  0.76184  0.10668  0.01931  1.0000
  C   C182      1.0  0.73135  0.09129  0.03235  1.0000
  C   C183      1.0  0.70840  0.07957  0.00010  1.0000
  C   C184      1.0  0.71595  0.08324  0.95492  1.0000
  C   C185      1.0  0.74644  0.09862  0.94188  1.0000
  C   C186      1.0  0.76938  0.11034  0.97408  1.0000
  H   H61       1.0  0.77905  0.11547  0.04345  1.0000
  O   O85       1.0  0.72456  0.08800  0.07306  1.0000
  O   O86       1.0  0.68096  0.06572  0.01189  1.0000
  H   H62       1.0  0.69874  0.07444  0.93078  1.0000
  O   O87       1.0  0.75323  0.10192  0.90118  1.0000
  O   O88       1.0  0.79682  0.12419  0.96234  1.0000
  C   C187      1.0  0.98590  0.55428  0.95491  1.0000
  C   C188      1.0  0.97064  0.56952  0.94189  1.0000
  C   C189      1.0  0.95916  0.58100  0.97409  1.0000
  C   C190      1.0  0.96295  0.57724  0.01932  1.0000
  C   C191      1.0  0.97821  0.56199  0.03235  1.0000
  C   C192      1.0  0.98968  0.55052  0.00010  1.0000
  H   H63       1.0  0.99450  0.54567  0.93076  1.0000
  O   O89       1.0  0.96723  0.57291  0.90118  1.0000
  O   O90       1.0  0.94543  0.59472  0.96237  1.0000
  H   H64       1.0  0.95434  0.58584  0.04348  1.0000
  O   O91       1.0  0.98161  0.55860  0.07305  1.0000
  O   O92       1.0  0.00342  0.53680  0.01186  1.0000
  C   C193      1.0  0.49216  0.30743  0.01936  1.0000
  C   C194      1.0  0.48839  0.29990  0.97412  1.0000
  C   C195      1.0  0.49987  0.32285  0.94194  1.0000
  C   C196      1.0  0.51513  0.35334  0.95499  1.0000
  C   C197      1.0  0.51889  0.36088  0.00010  1.0000
  C   C198      1.0  0.50741  0.33792  0.03241  1.0000
  H   H65       1.0  0.48355  0.29022  0.04349  1.0000
  O   O93       1.0  0.47467  0.27246  0.96237  1.0000
  O   O94       1.0  0.49648  0.31606  0.90123  1.0000
  H   H66       1.0  0.52374  0.37055  0.93085  1.0000
  O   O95       1.0  0.53262  0.38831  0.01198  1.0000
  O   O96       1.0  0.51080  0.34471  0.07312  1.0000
  C   C199      1.0  0.03652  0.58437  0.14113  1.0000
  C   C200      1.0  0.01368  0.55658  0.16815  1.0000
  C   C201      1.0  0.01288  0.55844  0.21918  1.0000
  C   C202      1.0  0.03493  0.58810  0.24332  1.0000
  C   C203      1.0  0.05785  0.61599  0.21627  1.0000
  C   C204      1.0  0.05859  0.61404  0.16520  1.0000
  O   O97       1.0  0.03731  0.58254  0.09106  1.0000
  O   O98       1.0  0.99205  0.52749  0.14453  1.0000
  H   H67       1.0  0.99595  0.53784  0.23910  1.0000
  O   O99       1.0  0.03406  0.58982  0.29347  1.0000
  O   O100      1.0  0.07959  0.64521  0.23974  1.0000
  H   H68       1.0  0.07550  0.63462  0.14521  1.0000
  Cu  Cu7       1.0  0.06928  0.63600  0.31072  1.0000
  C   C205      1.0  0.51276  0.37883  0.16816  1.0000
  C   C206      1.0  0.48498  0.37388  0.14112  1.0000
  C   C207      1.0  0.45527  0.36629  0.16506  1.0000
  C   C208      1.0  0.45328  0.36364  0.21611  1.0000
  C   C209      1.0  0.48113  0.36860  0.24329  1.0000
  C   C210      1.0  0.51082  0.37618  0.21921  1.0000
  O   O101      1.0  0.54191  0.38627  0.14468  1.0000
  O   O102      1.0  0.48688  0.37647  0.09107  1.0000
  H   H69       1.0  0.43473  0.36264  0.14497  1.0000
  O   O103      1.0  0.42405  0.35619  0.23948  1.0000
  O   O104      1.0  0.47936  0.36603  0.29345  1.0000
  H   H70       1.0  0.53138  0.37985  0.23924  1.0000
  Cu  Cu8       1.0  0.43310  0.35510  0.31047  1.0000
  C   C211      1.0  0.69050  0.05562  0.16809  1.0000
  C   C212      1.0  0.69548  0.03280  0.14103  1.0000
  C   C213      1.0  0.70313  0.01072  0.16495  1.0000
  C   C214      1.0  0.70582  0.01140  0.21600  1.0000
  C   C215      1.0  0.70083  0.03428  0.24319  1.0000
  C   C216      1.0  0.69318  0.05634  0.21914  1.0000
  O   O105      1.0  0.68300  0.07729  0.14462  1.0000
  O   O106      1.0  0.69286  0.03210  0.09098  1.0000
  H   H71       1.0  0.70681  0.99385  0.14485  1.0000
  O   O107      1.0  0.71334  0.98966  0.23935  1.0000
  O   O108      1.0  0.70343  0.03509  0.29335  1.0000
  H   H72       1.0  0.68949  0.07323  0.23918  1.0000
  Cu  Cu9       1.0  0.71445  0.99990  0.31033  1.0000
  C   C217      1.0  0.99283  0.28678  0.83311  1.0000
  C   C218      1.0  0.96503  0.28183  0.80609  1.0000
  C   C219      1.0  0.96688  0.28445  0.75506  1.0000
  C   C220      1.0  0.99653  0.29203  0.73091  1.0000
  C   C221      1.0  0.02444  0.29700  0.75797  1.0000
  C   C222      1.0  0.02250  0.29436  0.80903  1.0000
  O   O109      1.0  0.99102  0.28420  0.88319  1.0000
  O   O110      1.0  0.93594  0.27440  0.82971  1.0000
  H   H73       1.0  0.94628  0.28078  0.73513  1.0000
  O   O111      1.0  0.99824  0.29458  0.68077  1.0000
  O   O112      1.0  0.05365  0.30445  0.73450  1.0000
  H   H74       1.0  0.04308  0.29802  0.82902  1.0000
  Cu  Cu10      1.0  0.04442  0.30550  0.66351  1.0000
  C   C223      1.0  0.78239  0.62770  0.83308  1.0000
  C   C224      1.0  0.78738  0.60488  0.80603  1.0000
  C   C225      1.0  0.78475  0.60411  0.75500  1.0000
  C   C226      1.0  0.77712  0.62615  0.73088  1.0000
  C   C227      1.0  0.77211  0.64906  0.75796  1.0000
  C   C228      1.0  0.77476  0.64977  0.80902  1.0000
  O   O113      1.0  0.78497  0.62847  0.88315  1.0000
  O   O114      1.0  0.79486  0.58325  0.82962  1.0000
  H   H75       1.0  0.78845  0.58719  0.73506  1.0000
  O   O115      1.0  0.77456  0.62531  0.68073  1.0000
  O   O116      1.0  0.76461  0.67080  0.73450  1.0000
  H   H76       1.0  0.77107  0.66667  0.82903  1.0000
  Cu  Cu11      1.0  0.76357  0.66053  0.66351  1.0000
  C   C229      1.0  0.46419  0.10405  0.80623  1.0000
  C   C230      1.0  0.44136  0.07628  0.83328  1.0000
  C   C231      1.0  0.41926  0.04657  0.80935  1.0000
  C   C232      1.0  0.41994  0.04457  0.75830  1.0000
  C   C233      1.0  0.44283  0.07241  0.73112  1.0000
  C   C234      1.0  0.46491  0.10210  0.75519  1.0000
  O   O117      1.0  0.48587  0.13320  0.82972  1.0000
  O   O118      1.0  0.44066  0.07820  0.88333  1.0000
  H   H77       1.0  0.40238  0.02604  0.82944  1.0000
  O   O119      1.0  0.39818  0.01533  0.73493  1.0000
  O   O120      1.0  0.44364  0.07062  0.68095  1.0000
  H   H78       1.0  0.48181  0.12265  0.73515  1.0000
  Cu  Cu12      1.0  0.40834  0.02436  0.66395  1.0000
  C   C235      1.0  0.78241  0.07639  0.83309  1.0000
  C   C236      1.0  0.78736  0.10418  0.80607  1.0000
  C   C237      1.0  0.78473  0.10233  0.75504  1.0000
  C   C238      1.0  0.77715  0.07268  0.73089  1.0000
  C   C239      1.0  0.77217  0.04477  0.75795  1.0000
  C   C240      1.0  0.77482  0.04672  0.80901  1.0000
  O   O121      1.0  0.78498  0.07821  0.88316  1.0000
  O   O122      1.0  0.79480  0.13328  0.82968  1.0000
  H   H79       1.0  0.78841  0.12294  0.73511  1.0000
  O   O123      1.0  0.77459  0.07097  0.68074  1.0000
  O   O124      1.0  0.76471  0.01556  0.73448  1.0000
  H   H80       1.0  0.77115  0.02613  0.82900  1.0000
  Cu  Cu13      1.0  0.76366  0.02478  0.66349  1.0000
  C   C241      1.0  0.99299  0.62783  0.83313  1.0000
  C   C242      1.0  0.96520  0.60499  0.80610  1.0000
  C   C243      1.0  0.96707  0.60420  0.75506  1.0000
  C   C244      1.0  0.99672  0.62625  0.73093  1.0000
  C   C245      1.0  0.02461  0.64918  0.75799  1.0000
  C   C246      1.0  0.02266  0.64990  0.80906  1.0000
  O   O125      1.0  0.99116  0.62861  0.88320  1.0000
  O   O126      1.0  0.93611  0.58335  0.82970  1.0000
  H   H81       1.0  0.94647  0.58727  0.73513  1.0000
  O   O127      1.0  0.99844  0.62539  0.68078  1.0000
  O   O128      1.0  0.05383  0.67092  0.73453  1.0000
  H   H82       1.0  0.04323  0.66682  0.82906  1.0000
  Cu  Cu14      1.0  0.04462  0.66063  0.66354  1.0000
  C   C247      1.0  0.46433  0.28200  0.80620  1.0000
  C   C248      1.0  0.44152  0.28700  0.83327  1.0000
  C   C249      1.0  0.41944  0.29465  0.80935  1.0000
  C   C250      1.0  0.42012  0.29734  0.75831  1.0000
  C   C251      1.0  0.44298  0.29234  0.73111  1.0000
  C   C252      1.0  0.46504  0.28468  0.75515  1.0000
  O   O129      1.0  0.48599  0.27449  0.82966  1.0000
  O   O130      1.0  0.44082  0.28438  0.88331  1.0000
  H   H83       1.0  0.40258  0.29834  0.82946  1.0000
  O   O131      1.0  0.39838  0.30486  0.73496  1.0000
  O   O132      1.0  0.44379  0.29493  0.68094  1.0000
  H   H84       1.0  0.48192  0.28098  0.73510  1.0000
  Cu  Cu15      1.0  0.40852  0.30597  0.66397  1.0000
