data_image0
_chemical_formula_structural       Fe6C26H7O2H2O2HC4HO2HC26H7O2H2O2HC4HO2HC26H7O2H2O2HC4HO2HC26H7O2H2O2HC4HO2HC26H7O2H2O2HC4HO2HC26H7O2H2O2HC4HO2HFe6C6HO2HO2C6HO2HO2C6HO2HO2Cu3C6HO2HO2C6HO2HO2C6HO2HO2C6O2HO2HCuC6O2HO2HCuC6O2HO2HCuC6HO2HO2C6HO2HO2C6HO2HO2C6HO2HO2C6HO2HO2C6HO2HO2C6O2HO2HCuC6O2HO2HCuC6O2HO2HCuC6O2HO2HCuC6O2HO2HCuC6O2HO2HCuC6O2HO2HCuC6O2HO2HCuC6O2HO2HCu
_chemical_formula_sum              "Fe12 C324 H120 O132 Cu15"
_cell_length_a       61.1742
_cell_length_b       61.1849
_cell_length_c       35.5755
_cell_angle_alpha    90.0017
_cell_angle_beta     90.0019
_cell_angle_gamma    120.001

_space_group_name_H-M_alt    "P 1"
_space_group_IT_number       1

loop_
  _space_group_symop_operation_xyz
  'x, y, z'

loop_
  _atom_site_type_symbol
  _atom_site_label
  _atom_site_symmetry_multiplicity
  _atom_site_fract_x
  _atom_site_fract_y
  _atom_site_fract_z
  _atom_site_occupancy
  Fe  Fe1       1.0  0.60105  0.09399  0.07936  1.0000
  Fe  Fe2       1.0  0.00264  0.36875  0.07931  1.0000
  Fe  Fe3       1.0  0.72790  0.49562  0.07930  1.0000
  Fe  Fe4       1.0  0.72738  0.09392  0.07984  1.0000
  Fe  Fe5       1.0  0.00267  0.49509  0.07986  1.0000
  Fe  Fe6       1.0  0.60158  0.36925  0.07989  1.0000
  C   C1        1.0  0.10059  0.31585  0.52611  1.0000
  C   C2        1.0  0.12117  0.31343  0.54745  1.0000
  C   C3        1.0  0.14425  0.31598  0.52616  1.0000
  C   C4        1.0  0.14675  0.32095  0.48352  1.0000
  C   C5        1.0  0.12617  0.32337  0.46216  1.0000
  C   C6        1.0  0.10308  0.32082  0.48345  1.0000
  C   C7        1.0  0.16983  0.32350  0.46223  1.0000
  C   C8        1.0  0.19042  0.32108  0.48358  1.0000
  C   C9        1.0  0.18792  0.31611  0.52624  1.0000
  C   C10       1.0  0.16484  0.31356  0.54753  1.0000
  C   C11       1.0  0.07751  0.31331  0.54740  1.0000
  C   C12       1.0  0.07501  0.30834  0.59003  1.0000
  C   C13       1.0  0.09560  0.30592  0.61140  1.0000
  C   C14       1.0  0.11868  0.30847  0.59011  1.0000
  C   C15       1.0  0.08250  0.32324  0.46208  1.0000
  C   C16       1.0  0.08500  0.32821  0.41945  1.0000
  C   C17       1.0  0.10808  0.33075  0.39816  1.0000
  C   C18       1.0  0.12866  0.32834  0.41950  1.0000
  C   C19       1.0  0.11057  0.33572  0.35550  1.0000
  C   C20       1.0  0.08998  0.33814  0.33413  1.0000
  C   C21       1.0  0.06690  0.33560  0.35542  1.0000
  C   C22       1.0  0.06441  0.33063  0.39808  1.0000
  C   C23       1.0  0.20851  0.31369  0.54760  1.0000
  C   C24       1.0  0.23159  0.31624  0.52631  1.0000
  C   C25       1.0  0.23408  0.32120  0.48365  1.0000
  C   C26       1.0  0.21350  0.32363  0.46229  1.0000
  H   H1        1.0  0.17168  0.32717  0.43064  1.0000
  H   H2        1.0  0.16299  0.30989  0.57909  1.0000
  H   H3        1.0  0.06227  0.31510  0.53157  1.0000
  H   H4        1.0  0.13392  0.30668  0.60591  1.0000
  H   H5        1.0  0.06541  0.32136  0.47784  1.0000
  H   H6        1.0  0.14574  0.33022  0.40374  1.0000
  H   H7        1.0  0.12766  0.33761  0.33974  1.0000
  O   O1        1.0  0.09241  0.34298  0.29259  1.0000
  O   O2        1.0  0.04685  0.33795  0.33462  1.0000
  H   H8        1.0  0.04732  0.32874  0.41384  1.0000
  H   H9        1.0  0.20666  0.31001  0.57917  1.0000
  O   O3        1.0  0.25164  0.31388  0.54712  1.0000
  O   O4        1.0  0.25657  0.32369  0.46292  1.0000
  H   H10       1.0  0.21535  0.32730  0.43072  1.0000
  C   C27       1.0  0.09311  0.30095  0.65406  1.0000
  C   C28       1.0  0.07003  0.29840  0.67535  1.0000
  C   C29       1.0  0.04944  0.30082  0.65398  1.0000
  C   C30       1.0  0.05193  0.30579  0.61132  1.0000
  H   H11       1.0  0.10834  0.29916  0.66986  1.0000
  O   O5        1.0  0.06760  0.29357  0.71689  1.0000
  O   O6        1.0  0.02696  0.29834  0.67472  1.0000
  H   H12       1.0  0.03669  0.30758  0.59552  1.0000
  C   C31       1.0  0.77329  0.66448  0.46213  1.0000
  C   C32       1.0  0.77584  0.64396  0.48342  1.0000
  C   C33       1.0  0.78081  0.64643  0.52608  1.0000
  C   C34       1.0  0.78323  0.66943  0.54744  1.0000
  C   C35       1.0  0.78068  0.68996  0.52614  1.0000
  C   C36       1.0  0.77572  0.68749  0.48349  1.0000
  C   C37       1.0  0.78820  0.67190  0.59009  1.0000
  C   C38       1.0  0.79074  0.65138  0.61138  1.0000
  C   C39       1.0  0.78832  0.62837  0.59002  1.0000
  C   C40       1.0  0.78335  0.62590  0.54737  1.0000
  C   C41       1.0  0.76833  0.66201  0.41948  1.0000
  C   C42       1.0  0.76590  0.63902  0.39812  1.0000
  C   C43       1.0  0.76845  0.61848  0.41941  1.0000
  C   C44       1.0  0.77342  0.62095  0.46207  1.0000
  C   C45       1.0  0.77317  0.70803  0.46220  1.0000
  C   C46       1.0  0.77560  0.73102  0.48356  1.0000
  C   C47       1.0  0.78056  0.73349  0.52621  1.0000
  C   C48       1.0  0.78311  0.71297  0.54750  1.0000
  C   C49       1.0  0.78299  0.75650  0.54757  1.0000
  C   C50       1.0  0.78044  0.77703  0.52628  1.0000
  C   C51       1.0  0.77547  0.77456  0.48363  1.0000
  C   C52       1.0  0.77305  0.75155  0.46227  1.0000
  C   C53       1.0  0.79086  0.60783  0.61131  1.0000
  C   C54       1.0  0.79583  0.61030  0.65397  1.0000
  C   C55       1.0  0.79825  0.63331  0.67533  1.0000
  C   C56       1.0  0.79571  0.65385  0.65403  1.0000
  H   H13       1.0  0.78999  0.68894  0.60590  1.0000
  H   H14       1.0  0.78156  0.60887  0.53156  1.0000
  H   H15       1.0  0.76644  0.67722  0.40372  1.0000
  H   H16       1.0  0.77530  0.60576  0.47783  1.0000
  H   H17       1.0  0.76950  0.70620  0.43063  1.0000
  H   H18       1.0  0.78678  0.71480  0.57908  1.0000
  H   H19       1.0  0.78666  0.75833  0.57914  1.0000
  O   O7        1.0  0.78280  0.79944  0.54708  1.0000
  O   O8        1.0  0.77300  0.79456  0.46289  1.0000
  H   H20       1.0  0.76937  0.74972  0.43069  1.0000
  H   H21       1.0  0.78907  0.59081  0.59550  1.0000
  O   O9        1.0  0.79831  0.59031  0.67470  1.0000
  O   O10       1.0  0.80309  0.63572  0.71687  1.0000
  H   H22       1.0  0.79750  0.67087  0.66984  1.0000
  C   C57       1.0  0.76603  0.59547  0.39805  1.0000
  C   C58       1.0  0.76106  0.59300  0.35540  1.0000
  C   C59       1.0  0.75851  0.61354  0.33411  1.0000
  C   C60       1.0  0.76094  0.63654  0.35547  1.0000
  H   H23       1.0  0.76791  0.58028  0.41382  1.0000
  O   O11       1.0  0.75870  0.57059  0.33460  1.0000
  O   O12       1.0  0.75368  0.61113  0.29257  1.0000
  H   H24       1.0  0.75905  0.65174  0.33971  1.0000
  C   C61       1.0  0.42722  0.97547  0.54749  1.0000
  C   C62       1.0  0.45021  0.99605  0.52613  1.0000
  C   C63       1.0  0.45269  0.99355  0.48348  1.0000
  C   C64       1.0  0.43217  0.97048  0.46218  1.0000
  C   C65       1.0  0.40916  0.94989  0.48354  1.0000
  C   C66       1.0  0.40669  0.95239  0.52619  1.0000
  C   C67       1.0  0.43464  0.96799  0.41953  1.0000
  C   C68       1.0  0.45763  0.98856  0.39818  1.0000
  C   C69       1.0  0.47817  0.01165  0.41947  1.0000
  C   C70       1.0  0.47570  0.01414  0.46212  1.0000
  C   C71       1.0  0.42475  0.97797  0.59014  1.0000
  C   C72       1.0  0.44527  0.00104  0.61143  1.0000
  C   C73       1.0  0.46828  0.02162  0.59007  1.0000
  C   C74       1.0  0.47075  0.01913  0.54742  1.0000
  C   C75       1.0  0.38368  0.93180  0.54755  1.0000
  C   C76       1.0  0.36316  0.90873  0.52626  1.0000
  C   C77       1.0  0.36563  0.90624  0.48361  1.0000
  C   C78       1.0  0.38862  0.92681  0.46225  1.0000
  C   C79       1.0  0.34509  0.88315  0.46231  1.0000
  C   C80       1.0  0.32208  0.86256  0.48367  1.0000
  C   C81       1.0  0.31961  0.86506  0.52632  1.0000
  C   C82       1.0  0.34015  0.88814  0.54762  1.0000
  C   C83       1.0  0.50118  0.03224  0.39811  1.0000
  C   C84       1.0  0.50365  0.02974  0.35546  1.0000
  C   C85       1.0  0.48311  0.00666  0.33417  1.0000
  C   C86       1.0  0.46010  0.98607  0.35552  1.0000
  H   H25       1.0  0.41943  0.95089  0.40377  1.0000
  H   H26       1.0  0.49089  0.03122  0.47788  1.0000
  H   H27       1.0  0.40771  0.96272  0.60595  1.0000
  H   H28       1.0  0.48778  0.03436  0.53161  1.0000
  H   H29       1.0  0.38185  0.93364  0.57913  1.0000
  H   H30       1.0  0.39045  0.92496  0.43068  1.0000
  H   H31       1.0  0.34692  0.88130  0.43074  1.0000
  O   O13       1.0  0.30209  0.84008  0.46293  1.0000
  O   O14       1.0  0.29721  0.84501  0.54713  1.0000
  H   H32       1.0  0.33832  0.88999  0.57919  1.0000
  H   H33       1.0  0.51637  0.04932  0.41387  1.0000
  O   O15       1.0  0.52606  0.04979  0.33466  1.0000
  O   O16       1.0  0.48552  0.00423  0.29262  1.0000
  H   H34       1.0  0.44491  0.96899  0.33976  1.0000
  C   C87       1.0  0.48882  0.04471  0.61137  1.0000
  C   C88       1.0  0.48634  0.04720  0.65402  1.0000
  C   C89       1.0  0.46333  0.02661  0.67538  1.0000
  C   C90       1.0  0.44280  0.00353  0.65408  1.0000
  H   H35       1.0  0.50584  0.05994  0.59556  1.0000
  O   O17       1.0  0.50634  0.06968  0.67476  1.0000
  O   O18       1.0  0.46093  0.02904  0.71692  1.0000
  H   H36       1.0  0.42577  0.98830  0.66989  1.0000
  C   C91       1.0  0.42825  0.31555  0.54820  1.0000
  C   C92       1.0  0.45132  0.31809  0.52691  1.0000
  C   C93       1.0  0.45382  0.32306  0.48426  1.0000
  C   C94       1.0  0.43325  0.32548  0.46290  1.0000
  C   C95       1.0  0.41016  0.32294  0.48419  1.0000
  C   C96       1.0  0.40767  0.31797  0.52684  1.0000
  C   C97       1.0  0.43574  0.33045  0.42025  1.0000
  C   C98       1.0  0.45881  0.33299  0.39896  1.0000
  C   C99       1.0  0.47940  0.33057  0.42032  1.0000
  C   C100      1.0  0.47690  0.32561  0.46297  1.0000
  C   C101      1.0  0.42576  0.31058  0.59086  1.0000
  C   C102      1.0  0.44633  0.30816  0.61222  1.0000
  C   C103      1.0  0.46942  0.31071  0.59093  1.0000
  C   C104      1.0  0.47191  0.31567  0.54827  1.0000
  C   C105      1.0  0.38458  0.31543  0.54814  1.0000
  C   C106      1.0  0.36401  0.31785  0.52677  1.0000
  C   C107      1.0  0.36650  0.32281  0.48412  1.0000
  C   C108      1.0  0.38957  0.32536  0.46283  1.0000
  C   C109      1.0  0.34591  0.32524  0.46276  1.0000
  C   C110      1.0  0.32283  0.32269  0.48405  1.0000
  C   C111      1.0  0.32033  0.31772  0.52670  1.0000
  C   C112      1.0  0.34092  0.31530  0.54807  1.0000
  C   C113      1.0  0.50249  0.33312  0.39903  1.0000
  C   C114      1.0  0.50498  0.33808  0.35638  1.0000
  C   C115      1.0  0.48439  0.34051  0.33502  1.0000
  C   C116      1.0  0.46131  0.33796  0.35631  1.0000
  H   H37       1.0  0.42049  0.33224  0.40444  1.0000
  H   H38       1.0  0.49214  0.32381  0.47878  1.0000
  H   H39       1.0  0.40866  0.30870  0.60662  1.0000
  H   H40       1.0  0.48899  0.31756  0.53251  1.0000
  H   H41       1.0  0.38273  0.31175  0.57971  1.0000
  H   H42       1.0  0.39142  0.32904  0.43126  1.0000
  H   H43       1.0  0.34776  0.32891  0.43119  1.0000
  O   O19       1.0  0.30278  0.32505  0.46325  1.0000
  O   O20       1.0  0.29785  0.31524  0.54744  1.0000
  H   H44       1.0  0.33907  0.31163  0.57964  1.0000
  H   H45       1.0  0.51772  0.33133  0.41484  1.0000
  O   O21       1.0  0.52746  0.34056  0.33564  1.0000
  O   O22       1.0  0.48682  0.34534  0.29348  1.0000
  H   H46       1.0  0.44607  0.33975  0.34050  1.0000
  C   C117      1.0  0.49001  0.30828  0.61229  1.0000
  C   C118      1.0  0.48751  0.30332  0.65494  1.0000
  C   C119      1.0  0.46443  0.30077  0.67623  1.0000
  C   C120      1.0  0.44384  0.30319  0.65487  1.0000
  H   H47       1.0  0.50709  0.31017  0.59653  1.0000
  O   O23       1.0  0.50756  0.30096  0.67574  1.0000
  O   O24       1.0  0.46200  0.29594  0.71777  1.0000
  H   H48       1.0  0.42676  0.30131  0.67063  1.0000
  C   C121      1.0  0.77862  0.99490  0.52688  1.0000
  C   C122      1.0  0.78116  0.97437  0.54816  1.0000
  C   C123      1.0  0.77874  0.95137  0.52680  1.0000
  C   C124      1.0  0.77378  0.94889  0.48416  1.0000
  C   C125      1.0  0.77123  0.96943  0.46286  1.0000
  C   C126      1.0  0.77365  0.99243  0.48422  1.0000
  C   C127      1.0  0.77136  0.92589  0.46280  1.0000
  C   C128      1.0  0.77390  0.90537  0.48408  1.0000
  C   C129      1.0  0.77887  0.90784  0.52674  1.0000
  C   C130      1.0  0.78129  0.93084  0.54810  1.0000
  C   C131      1.0  0.78104  0.01790  0.54824  1.0000
  C   C132      1.0  0.78600  0.02038  0.59088  1.0000
  C   C133      1.0  0.78855  0.99990  0.61218  1.0000
  C   C134      1.0  0.78613  0.97684  0.59082  1.0000
  C   C135      1.0  0.77110  0.01296  0.46292  1.0000
  C   C136      1.0  0.76614  0.01048  0.42029  1.0000
  C   C137      1.0  0.76371  0.98748  0.39893  1.0000
  C   C138      1.0  0.76626  0.96695  0.42020  1.0000
  C   C139      1.0  0.75875  0.98501  0.35627  1.0000
  C   C140      1.0  0.75620  0.00554  0.33497  1.0000
  C   C141      1.0  0.75862  0.02854  0.35633  1.0000
  C   C142      1.0  0.76359  0.03101  0.39899  1.0000
  C   C143      1.0  0.78142  0.88731  0.54804  1.0000
  C   C144      1.0  0.77900  0.86430  0.52668  1.0000
  C   C145      1.0  0.77403  0.86183  0.48402  1.0000
  C   C146      1.0  0.77148  0.88236  0.46272  1.0000
  H   H49       1.0  0.76768  0.92407  0.43121  1.0000
  H   H50       1.0  0.78497  0.93267  0.57967  1.0000
  H   H51       1.0  0.77915  0.03310  0.53246  1.0000
  H   H52       1.0  0.78801  0.96165  0.60657  1.0000
  H   H53       1.0  0.77289  0.02999  0.47873  1.0000
  H   H54       1.0  0.76447  0.94993  0.40439  1.0000
  H   H55       1.0  0.75696  0.96798  0.34046  1.0000
  O   O25       1.0  0.75136  0.00313  0.29342  1.0000
  O   O26       1.0  0.75614  0.04854  0.33559  1.0000
  H   H56       1.0  0.76538  0.04804  0.41480  1.0000
  H   H57       1.0  0.78509  0.88914  0.57961  1.0000
  O   O27       1.0  0.78148  0.84431  0.54742  1.0000
  O   O28       1.0  0.77167  0.83943  0.46322  1.0000
  H   H58       1.0  0.76780  0.88053  0.43115  1.0000
  C   C147      1.0  0.79352  0.00232  0.65484  1.0000
  C   C148      1.0  0.79594  0.02532  0.67620  1.0000
  C   C149      1.0  0.79339  0.04585  0.65490  1.0000
  C   C150      1.0  0.78842  0.04338  0.61224  1.0000
  H   H59       1.0  0.79540  0.98712  0.67059  1.0000
  O   O29       1.0  0.80078  0.02773  0.71774  1.0000
  O   O30       1.0  0.79575  0.06826  0.67570  1.0000
  H   H60       1.0  0.78654  0.05858  0.59648  1.0000
  C   C151      1.0  0.10423  0.64283  0.48424  1.0000
  C   C152      1.0  0.12723  0.66341  0.46289  1.0000
  C   C153      1.0  0.14776  0.68649  0.48419  1.0000
  C   C154      1.0  0.14529  0.68899  0.52682  1.0000
  C   C155      1.0  0.12229  0.66840  0.54819  1.0000
  C   C156      1.0  0.10175  0.64532  0.52689  1.0000
  C   C157      1.0  0.16583  0.71207  0.54812  1.0000
  C   C158      1.0  0.18882  0.73265  0.52677  1.0000
  C   C159      1.0  0.19130  0.73015  0.48412  1.0000
  C   C160      1.0  0.17077  0.70708  0.46282  1.0000
  C   C161      1.0  0.08370  0.61975  0.46294  1.0000
  C   C162      1.0  0.08616  0.61725  0.42031  1.0000
  C   C163      1.0  0.10917  0.63784  0.39894  1.0000
  C   C164      1.0  0.12970  0.66092  0.42023  1.0000
  C   C165      1.0  0.07875  0.62474  0.54826  1.0000
  C   C166      1.0  0.07628  0.62724  0.59090  1.0000
  C   C167      1.0  0.09681  0.65031  0.61219  1.0000
  C   C168      1.0  0.11981  0.67089  0.59085  1.0000
  C   C169      1.0  0.09434  0.65281  0.65485  1.0000
  C   C170      1.0  0.07133  0.63222  0.67621  1.0000
  C   C171      1.0  0.05080  0.60914  0.65492  1.0000
  C   C172      1.0  0.05327  0.60665  0.61226  1.0000
  C   C173      1.0  0.21431  0.75074  0.46275  1.0000
  C   C174      1.0  0.23484  0.77382  0.48404  1.0000
  C   C175      1.0  0.23236  0.77631  0.52670  1.0000
  C   C176      1.0  0.20936  0.75572  0.54807  1.0000
  H   H61       1.0  0.16399  0.71391  0.57971  1.0000
  H   H62       1.0  0.17259  0.70523  0.43125  1.0000
  H   H63       1.0  0.06666  0.60451  0.47877  1.0000
  H   H64       1.0  0.14673  0.67615  0.40443  1.0000
  H   H65       1.0  0.06355  0.60765  0.53250  1.0000
  H   H66       1.0  0.13501  0.68798  0.60661  1.0000
  H   H67       1.0  0.10954  0.66989  0.67061  1.0000
  O   O31       1.0  0.06892  0.63465  0.71776  1.0000
  O   O32       1.0  0.02839  0.58909  0.67572  1.0000
  H   H68       1.0  0.03807  0.58957  0.59650  1.0000
  H   H69       1.0  0.21613  0.74889  0.43118  1.0000
  O   O33       1.0  0.25724  0.79387  0.46324  1.0000
  O   O34       1.0  0.25236  0.79879  0.54744  1.0000
  H   H70       1.0  0.20753  0.75757  0.57964  1.0000
  C   C177      1.0  0.11164  0.63535  0.35628  1.0000
  C   C178      1.0  0.09111  0.61227  0.33499  1.0000
  C   C179      1.0  0.06810  0.59168  0.35635  1.0000
  C   C180      1.0  0.06563  0.59418  0.39901  1.0000
  H   H71       1.0  0.12867  0.65058  0.34048  1.0000
  O   O35       1.0  0.09352  0.60984  0.29344  1.0000
  O   O36       1.0  0.04810  0.56921  0.33561  1.0000
  H   H72       1.0  0.04860  0.57894  0.41482  1.0000
  Fe  Fe7       1.0  0.82702  0.54490  0.93045  1.0000
  Fe  Fe8       1.0  0.55175  0.14381  0.93050  1.0000
  Fe  Fe9       1.0  0.95281  0.26962  0.93046  1.0000
  Fe  Fe10      1.0  0.95338  0.54491  0.93101  1.0000
  Fe  Fe11      1.0  0.55173  0.27014  0.93103  1.0000
  Fe  Fe12      1.0  0.82650  0.14323  0.93101  1.0000
  C   C181      1.0  0.67753  0.12054  0.06794  1.0000
  C   C182      1.0  0.65122  0.10757  0.07161  1.0000
  C   C183      1.0  0.63824  0.08164  0.07914  1.0000
  C   C184      1.0  0.65157  0.06868  0.08300  1.0000
  C   C185      1.0  0.67788  0.08165  0.07933  1.0000
  C   C186      1.0  0.69086  0.10758  0.07180  1.0000
  H   H73       1.0  0.68726  0.13999  0.06229  1.0000
  O   O37       1.0  0.63922  0.11924  0.06814  1.0000
  O   O38       1.0  0.61456  0.06997  0.08244  1.0000
  H   H74       1.0  0.64184  0.04923  0.08864  1.0000
  O   O39       1.0  0.68988  0.06998  0.08280  1.0000
  O   O40       1.0  0.71454  0.11926  0.06849  1.0000
  C   C187      1.0  0.02793  0.44456  0.08299  1.0000
  C   C188      1.0  0.01498  0.41827  0.07911  1.0000
  C   C189      1.0  0.98904  0.40530  0.07158  1.0000
  C   C190      1.0  0.97606  0.41863  0.06792  1.0000
  C   C191      1.0  0.98901  0.44492  0.07179  1.0000
  C   C192      1.0  0.01495  0.45789  0.07932  1.0000
  H   H75       1.0  0.04739  0.45429  0.08863  1.0000
  O   O41       1.0  0.02666  0.40628  0.08241  1.0000
  O   O42       1.0  0.97738  0.38164  0.06810  1.0000
  H   H76       1.0  0.95660  0.40890  0.06227  1.0000
  O   O43       1.0  0.97733  0.45691  0.06850  1.0000
  O   O44       1.0  0.02661  0.48155  0.08281  1.0000
  C   C193      1.0  0.67805  0.41915  0.06790  1.0000
  C   C194      1.0  0.65175  0.40579  0.07180  1.0000
  C   C195      1.0  0.63877  0.41874  0.07935  1.0000
  C   C196      1.0  0.65208  0.44505  0.08302  1.0000
  C   C197      1.0  0.67837  0.45840  0.07912  1.0000
  C   C198      1.0  0.69136  0.44546  0.07157  1.0000
  H   H77       1.0  0.68778  0.40944  0.06223  1.0000
  O   O45       1.0  0.63977  0.38212  0.06850  1.0000
  O   O46       1.0  0.61510  0.40672  0.08286  1.0000
  H   H78       1.0  0.64234  0.45476  0.08869  1.0000
  O   O47       1.0  0.69035  0.48208  0.08242  1.0000
  O   O48       1.0  0.71502  0.45748  0.06806  1.0000
  Cu  Cu1       1.0  0.27721  0.31947  0.50517  1.0000
  Cu  Cu2       1.0  0.77724  0.81943  0.50515  1.0000
  Cu  Cu3       1.0  0.27723  0.81944  0.50519  1.0000
  C   C199      1.0  0.90283  0.57018  0.92731  1.0000
  C   C200      1.0  0.87652  0.55719  0.93098  1.0000
  C   C201      1.0  0.86356  0.53126  0.93853  1.0000
  C   C202      1.0  0.87691  0.51832  0.94242  1.0000
  C   C203      1.0  0.90322  0.53130  0.93875  1.0000
  C   C204      1.0  0.91618  0.55723  0.93119  1.0000
  H   H79       1.0  0.91255  0.58962  0.92164  1.0000
  O   O49       1.0  0.86451  0.56884  0.92748  1.0000
  O   O50       1.0  0.83988  0.51958  0.94184  1.0000
  H   H80       1.0  0.86719  0.49887  0.94809  1.0000
  O   O51       1.0  0.91523  0.51965  0.94225  1.0000
  O   O52       1.0  0.93986  0.56892  0.92789  1.0000
  C   C205      1.0  0.57833  0.22027  0.94246  1.0000
  C   C206      1.0  0.56539  0.19398  0.93858  1.0000
  C   C207      1.0  0.53946  0.18100  0.93101  1.0000
  C   C208      1.0  0.52647  0.19432  0.92734  1.0000
  C   C209      1.0  0.53941  0.22061  0.93122  1.0000
  C   C210      1.0  0.56534  0.23359  0.93878  1.0000
  H   H81       1.0  0.59778  0.23000  0.94813  1.0000
  O   O53       1.0  0.57708  0.18199  0.94189  1.0000
  O   O54       1.0  0.52781  0.15734  0.92752  1.0000
  H   H82       1.0  0.50702  0.18459  0.92167  1.0000
  O   O55       1.0  0.52772  0.23260  0.92791  1.0000
  O   O56       1.0  0.57699  0.25725  0.94227  1.0000
  C   C211      1.0  0.90232  0.19382  0.92734  1.0000
  C   C212      1.0  0.87603  0.18045  0.93121  1.0000
  C   C213      1.0  0.86304  0.19340  0.93873  1.0000
  C   C214      1.0  0.87634  0.21970  0.94239  1.0000
  C   C215      1.0  0.90264  0.23307  0.93853  1.0000
  C   C216      1.0  0.91563  0.22012  0.93100  1.0000
  H   H83       1.0  0.91207  0.18411  0.92170  1.0000
  O   O57       1.0  0.86405  0.15678  0.92792  1.0000
  O   O58       1.0  0.83937  0.18137  0.94222  1.0000
  H   H84       1.0  0.86660  0.22941  0.94804  1.0000
  O   O59       1.0  0.91461  0.25674  0.94182  1.0000
  O   O60       1.0  0.93930  0.23215  0.92752  1.0000
  C   C217      1.0  0.58557  0.08462  0.15569  1.0000
  C   C218      1.0  0.56224  0.06578  0.13306  1.0000
  C   C219      1.0  0.53772  0.04726  0.15359  1.0000
  C   C220      1.0  0.53646  0.04753  0.19680  1.0000
  C   C221      1.0  0.55984  0.06641  0.21954  1.0000
  C   C222      1.0  0.58435  0.08492  0.19890  1.0000
  O   O61       1.0  0.60964  0.10279  0.13555  1.0000
  O   O62       1.0  0.56344  0.06549  0.09070  1.0000
  H   H85       1.0  0.52047  0.03333  0.13678  1.0000
  O   O63       1.0  0.51232  0.02929  0.21685  1.0000
  O   O64       1.0  0.55876  0.06679  0.26200  1.0000
  H   H86       1.0  0.60162  0.09886  0.21566  1.0000
  Cu  Cu4       1.0  0.52040  0.03733  0.27682  1.0000
  C   C223      1.0  0.03081  0.35816  0.13310  1.0000
  C   C224      1.0  0.01196  0.36265  0.15570  1.0000
  C   C225      1.0  0.01159  0.36114  0.19890  1.0000
  C   C226      1.0  0.03008  0.35515  0.21961  1.0000
  C   C227      1.0  0.04900  0.35064  0.19697  1.0000
  C   C228      1.0  0.04931  0.35217  0.15375  1.0000
  O   O65       1.0  0.03117  0.35964  0.09072  1.0000
  O   O66       1.0  0.99382  0.36853  0.13545  1.0000
  H   H87       1.0  0.99762  0.36447  0.21557  1.0000
  O   O67       1.0  0.02965  0.35369  0.26205  1.0000
  O   O68       1.0  0.06722  0.34474  0.21710  1.0000
  H   H88       1.0  0.06327  0.34884  0.13702  1.0000
  Cu  Cu5       1.0  0.05906  0.34482  0.27708  1.0000
  C   C229      1.0  0.73402  0.51110  0.15563  1.0000
  C   C230      1.0  0.73849  0.53442  0.13300  1.0000
  C   C231      1.0  0.74449  0.55894  0.15354  1.0000
  C   C232      1.0  0.74603  0.56020  0.19675  1.0000
  C   C233      1.0  0.74154  0.53682  0.21948  1.0000
  C   C234      1.0  0.73555  0.51232  0.19883  1.0000
  O   O69       1.0  0.72813  0.48704  0.13548  1.0000
  O   O70       1.0  0.73699  0.53322  0.09064  1.0000
  H   H89       1.0  0.74779  0.57618  0.13673  1.0000
  O   O71       1.0  0.75192  0.58433  0.21680  1.0000
  O   O72       1.0  0.74302  0.53791  0.26194  1.0000
  H   H90       1.0  0.73224  0.49506  0.21559  1.0000
  Cu  Cu6       1.0  0.75190  0.57626  0.27677  1.0000
  C   C235      1.0  0.98687  0.33756  0.97653  1.0000
  C   C236      1.0  0.97400  0.31192  0.96702  1.0000
  C   C237      1.0  0.96485  0.29358  0.99534  1.0000
  C   C238      1.0  0.96856  0.30087  0.03316  1.0000
  C   C239      1.0  0.98143  0.32651  0.04267  1.0000
  C   C240      1.0  0.99058  0.34486  0.01435  1.0000
  H   H91       1.0  0.99374  0.35132  0.95529  1.0000
  O   O73       1.0  0.97066  0.30536  0.93298  1.0000
  O   O74       1.0  0.95327  0.27050  0.98679  1.0000
  H   H92       1.0  0.96169  0.28711  0.05440  1.0000
  O   O75       1.0  0.98477  0.33307  0.07671  1.0000
  O   O76       1.0  0.00216  0.36793  0.02290  1.0000
  C   C241      1.0  0.79577  0.52892  0.03315  1.0000
  C   C242      1.0  0.77013  0.51639  0.04265  1.0000
  C   C243      1.0  0.75179  0.50770  0.01434  1.0000
  C   C244      1.0  0.75908  0.51152  0.97652  1.0000
  C   C245      1.0  0.78472  0.52405  0.96701  1.0000
  C   C246      1.0  0.80307  0.53275  0.99532  1.0000
  H   H93       1.0  0.80953  0.53544  0.05438  1.0000
  O   O77       1.0  0.76357  0.51295  0.07669  1.0000
  O   O78       1.0  0.72871  0.49642  0.02289  1.0000
  H   H94       1.0  0.74532  0.50500  0.95528  1.0000
  O   O79       1.0  0.79129  0.52749  0.93297  1.0000
  O   O80       1.0  0.82615  0.54402  0.98677  1.0000
  C   C247      1.0  0.57480  0.13470  0.03185  1.0000
  C   C248      1.0  0.56744  0.13509  0.99470  1.0000
  C   C249      1.0  0.56909  0.11930  0.96775  1.0000
  C   C250      1.0  0.57809  0.10312  0.97794  1.0000
  C   C251      1.0  0.58545  0.10273  0.01508  1.0000
  C   C252      1.0  0.58380  0.11852  0.04204  1.0000
  H   H95       1.0  0.57356  0.14654  0.05206  1.0000
  O   O81       1.0  0.55934  0.14965  0.98553  1.0000
  O   O82       1.0  0.56247  0.11966  0.93432  1.0000
  H   H96       1.0  0.57932  0.09128  0.95772  1.0000
  O   O83       1.0  0.59355  0.08817  0.02425  1.0000
  O   O84       1.0  0.59042  0.11816  0.07547  1.0000
  C   C253      1.0  0.79532  0.12823  0.03378  1.0000
  C   C254      1.0  0.76967  0.11524  0.04328  1.0000
  C   C255      1.0  0.75133  0.10562  0.01497  1.0000
  C   C256      1.0  0.75862  0.10899  0.97715  1.0000
  C   C257      1.0  0.78427  0.12198  0.96764  1.0000
  C   C258      1.0  0.80261  0.13160  0.99596  1.0000
  H   H97       1.0  0.80908  0.13544  0.05501  1.0000
  O   O85       1.0  0.76311  0.11220  0.07732  1.0000
  O   O86       1.0  0.72825  0.09392  0.02352  1.0000
  H   H98       1.0  0.74487  0.10177  0.95591  1.0000
  O   O87       1.0  0.79083  0.12502  0.93361  1.0000
  O   O88       1.0  0.82569  0.14330  0.98741  1.0000
  C   C259      1.0  0.99377  0.51829  0.97856  1.0000
  C   C260      1.0  0.97770  0.52743  0.96835  1.0000
  C   C261      1.0  0.96192  0.52913  0.99527  1.0000
  C   C262      1.0  0.96221  0.52169  0.03239  1.0000
  C   C263      1.0  0.97828  0.51256  0.04260  1.0000
  C   C264      1.0  0.99405  0.51086  0.01568  1.0000
  H   H99       1.0  0.00560  0.51702  0.95837  1.0000
  O   O89       1.0  0.97744  0.53413  0.93493  1.0000
  O   O90       1.0  0.94746  0.53736  0.98608  1.0000
  H   H100      1.0  0.95038  0.52297  0.05258  1.0000
  O   O91       1.0  0.97854  0.50586  0.07602  1.0000
  O   O92       1.0  0.00851  0.50263  0.02487  1.0000
  C   C265      1.0  0.56744  0.30131  0.03382  1.0000
  C   C266      1.0  0.56376  0.29402  0.99600  1.0000
  C   C267      1.0  0.57298  0.31237  0.96768  1.0000
  C   C268      1.0  0.58589  0.33801  0.97719  1.0000
  C   C269      1.0  0.58957  0.34530  0.01501  1.0000
  C   C270      1.0  0.58035  0.32695  0.04333  1.0000
  H   H101      1.0  0.56052  0.28755  0.05506  1.0000
  O   O93       1.0  0.55214  0.27095  0.98744  1.0000
  O   O94       1.0  0.56967  0.30581  0.93364  1.0000
  H   H102      1.0  0.59280  0.35177  0.95595  1.0000
  O   O95       1.0  0.60118  0.36837  0.02357  1.0000
  O   O96       1.0  0.58366  0.33351  0.07737  1.0000
  C   C271      1.0  0.03108  0.53367  0.13378  1.0000
  C   C272      1.0  0.01219  0.51033  0.15632  1.0000
  C   C273      1.0  0.01198  0.51134  0.19953  1.0000
  C   C274      1.0  0.03066  0.53570  0.22032  1.0000
  C   C275      1.0  0.04962  0.55913  0.19775  1.0000
  C   C276      1.0  0.04978  0.55805  0.15451  1.0000
  O   O97       1.0  0.03130  0.53269  0.09137  1.0000
  O   O98       1.0  0.99386  0.48643  0.13598  1.0000
  H   H103      1.0  0.99797  0.49403  0.21615  1.0000
  O   O99       1.0  0.03038  0.53660  0.26278  1.0000
  O   O100      1.0  0.06803  0.58313  0.21797  1.0000
  H   H104      1.0  0.06377  0.57533  0.13783  1.0000
  Cu  Cu7       1.0  0.06004  0.57474  0.27794  1.0000
  C   C277      1.0  0.58628  0.36353  0.15629  1.0000
  C   C278      1.0  0.56293  0.35906  0.13373  1.0000
  C   C279      1.0  0.53852  0.35337  0.15434  1.0000
  C   C280      1.0  0.53739  0.35213  0.19757  1.0000
  C   C281      1.0  0.56080  0.35660  0.22024  1.0000
  C   C282      1.0  0.58519  0.36229  0.19952  1.0000
  O   O101      1.0  0.61022  0.36911  0.13607  1.0000
  O   O102      1.0  0.56400  0.36027  0.09134  1.0000
  H   H105      1.0  0.52127  0.35007  0.13757  1.0000
  O   O103      1.0  0.51337  0.34653  0.21769  1.0000
  O   O104      1.0  0.55984  0.35542  0.26273  1.0000
  H   H106      1.0  0.60247  0.36560  0.21624  1.0000
  Cu  Cu8       1.0  0.52161  0.34690  0.27766  1.0000
  C   C283      1.0  0.73312  0.08435  0.15624  1.0000
  C   C284      1.0  0.73757  0.06547  0.13368  1.0000
  C   C285      1.0  0.74327  0.04676  0.15429  1.0000
  C   C286      1.0  0.74453  0.04688  0.19752  1.0000
  C   C287      1.0  0.74007  0.06581  0.22019  1.0000
  C   C288      1.0  0.73437  0.08451  0.19947  1.0000
  O   O105      1.0  0.72753  0.10271  0.13602  1.0000
  O   O106      1.0  0.73635  0.06531  0.09129  1.0000
  H   H107      1.0  0.74656  0.03280  0.13752  1.0000
  O   O107      1.0  0.75013  0.02846  0.21764  1.0000
  O   O108      1.0  0.74128  0.06606  0.26267  1.0000
  H   H108      1.0  0.73108  0.09849  0.21619  1.0000
  Cu  Cu9       1.0  0.74979  0.03635  0.27761  1.0000
  C   C289      1.0  0.99141  0.27981  0.87655  1.0000
  C   C290      1.0  0.96805  0.27534  0.85400  1.0000
  C   C291      1.0  0.96906  0.27656  0.81079  1.0000
  C   C292      1.0  0.99343  0.28225  0.79000  1.0000
  C   C293      1.0  0.01687  0.28674  0.81258  1.0000
  C   C294      1.0  0.01579  0.28551  0.85582  1.0000
  O   O109      1.0  0.99042  0.27861  0.91895  1.0000
  O   O110      1.0  0.94414  0.26975  0.87433  1.0000
  H   H109      1.0  0.95175  0.27324  0.79416  1.0000
  O   O111      1.0  0.99433  0.28343  0.74754  1.0000
  O   O112      1.0  0.04088  0.29235  0.79237  1.0000
  H   H110      1.0  0.03308  0.28882  0.87250  1.0000
  Cu  Cu10      1.0  0.03249  0.29194  0.73239  1.0000
  C   C295      1.0  0.81685  0.57331  0.87654  1.0000
  C   C296      1.0  0.82131  0.55442  0.85400  1.0000
  C   C297      1.0  0.82008  0.55421  0.81078  1.0000
  C   C298      1.0  0.81439  0.57288  0.79000  1.0000
  C   C299      1.0  0.80992  0.59184  0.81257  1.0000
  C   C300      1.0  0.81116  0.59199  0.85581  1.0000
  O   O113      1.0  0.81805  0.57352  0.91894  1.0000
  O   O114      1.0  0.82688  0.53610  0.87433  1.0000
  H   H111      1.0  0.82339  0.54021  0.79416  1.0000
  O   O115      1.0  0.81321  0.57260  0.74753  1.0000
  O   O116      1.0  0.80432  0.61024  0.79236  1.0000
  H   H112      1.0  0.80785  0.60598  0.87249  1.0000
  Cu  Cu11      1.0  0.80471  0.60225  0.73238  1.0000
  C   C301      1.0  0.54218  0.12850  0.85410  1.0000
  C   C302      1.0  0.52330  0.10516  0.87666  1.0000
  C   C303      1.0  0.50458  0.08076  0.85605  1.0000
  C   C304      1.0  0.50470  0.07962  0.81282  1.0000
  C   C305      1.0  0.52363  0.10302  0.79014  1.0000
  C   C306      1.0  0.54233  0.12741  0.81087  1.0000
  O   O117      1.0  0.56054  0.15245  0.87432  1.0000
  O   O118      1.0  0.52315  0.10624  0.91905  1.0000
  H   H113      1.0  0.49062  0.06351  0.87282  1.0000
  O   O119      1.0  0.48628  0.05560  0.79269  1.0000
  O   O120      1.0  0.52387  0.10206  0.74766  1.0000
  H   H114      1.0  0.55630  0.14468  0.79415  1.0000
  Cu  Cu12      1.0  0.49416  0.06384  0.73272  1.0000
  C   C307      1.0  0.81594  0.10449  0.87722  1.0000
  C   C308      1.0  0.82041  0.12782  0.85462  1.0000
  C   C309      1.0  0.81890  0.12668  0.81143  1.0000
  C   C310      1.0  0.81292  0.10221  0.79071  1.0000
  C   C311      1.0  0.80843  0.07879  0.81334  1.0000
  C   C312      1.0  0.80995  0.08000  0.85657  1.0000
  O   O121      1.0  0.81742  0.10561  0.91960  1.0000
  O   O122      1.0  0.82627  0.15183  0.87488  1.0000
  H   H115      1.0  0.82222  0.14397  0.79476  1.0000
  O   O123      1.0  0.81145  0.10118  0.74827  1.0000
  O   O124      1.0  0.80254  0.05467  0.79321  1.0000
  H   H116      1.0  0.80664  0.06273  0.87329  1.0000
  Cu  Cu13      1.0  0.80260  0.06290  0.73323  1.0000
  C   C313      1.0  0.99214  0.57307  0.87723  1.0000
  C   C314      1.0  0.96880  0.55422  0.85463  1.0000
  C   C315      1.0  0.96994  0.55385  0.81143  1.0000
  C   C316      1.0  0.99442  0.57233  0.79073  1.0000
  C   C317      1.0  0.01785  0.59125  0.81336  1.0000
  C   C318      1.0  0.01664  0.59157  0.85659  1.0000
  O   O125      1.0  0.99102  0.57344  0.91962  1.0000
  O   O126      1.0  0.94478  0.53609  0.87488  1.0000
  H   H117      1.0  0.95264  0.53988  0.79476  1.0000
  O   O127      1.0  0.99545  0.57190  0.74829  1.0000
  O   O128      1.0  0.04197  0.60947  0.79323  1.0000
  H   H118      1.0  0.03391  0.60553  0.87331  1.0000
  Cu  Cu14      1.0  0.03374  0.60131  0.73326  1.0000
  C   C319      1.0  0.54237  0.27626  0.85470  1.0000
  C   C320      1.0  0.52352  0.28074  0.87733  1.0000
  C   C321      1.0  0.50500  0.28674  0.85679  1.0000
  C   C322      1.0  0.50528  0.28828  0.81358  1.0000
  C   C323      1.0  0.52417  0.28379  0.79085  1.0000
  C   C324      1.0  0.54268  0.27779  0.81150  1.0000
  O   O129      1.0  0.56054  0.27037  0.87485  1.0000
  O   O130      1.0  0.52322  0.27924  0.91969  1.0000
  H   H119      1.0  0.49107  0.29005  0.87360  1.0000
  O   O131      1.0  0.48704  0.29418  0.79353  1.0000
  O   O132      1.0  0.52456  0.28527  0.74839  1.0000
  H   H120      1.0  0.55663  0.27447  0.79474  1.0000
  Cu  Cu15      1.0  0.49509  0.29415  0.73356  1.0000
