data_image0
_chemical_formula_structural       C18HO2H2O2H2O2HC18HO2H2O2H2O2HC18HO2H2O2H2O2HC18HO2H2O2H2O2HC18HO2H2O2H2O2HC18HO2H2O2H2O2HC18HO2H2O2H2O2HC18HO2H2O2H2O2HFe8C6HO2HO2C6HO2HO2C6HO2HO2C6HO2HO2C6O2HO2HCuC6O2HO2HCuC6O2HO2HCuC6O2HO2HCuC6O2HO2HCuC6O2HO2HCuC6O2HO2HCuC6O2HO2HCuC6O2HO2HCuC6O2HO2HCuC6O2HO2HCuC6O2HO2HCuC6O2HO2HCuC6O2HO2HCuC6O2HO2HCuC6O2HO2HCu5
_chemical_formula_sum              "C264 H88 O128 Fe8 Cu20"
_cell_length_a       42.9314
_cell_length_b       42.9314
_cell_length_c       52.7761
_cell_angle_alpha    90
_cell_angle_beta     90
_cell_angle_gamma    89.9982

_space_group_name_H-M_alt    "P 1"
_space_group_IT_number       1

loop_
  _space_group_symop_operation_xyz
  'x, y, z'

loop_
  _atom_site_type_symbol
  _atom_site_label
  _atom_site_symmetry_multiplicity
  _atom_site_fract_x
  _atom_site_fract_y
  _atom_site_fract_z
  _atom_site_occupancy
  C   C1        1.0  0.27088  0.24781  0.13949  1.0000
  C   C2        1.0  0.28015  0.23403  0.11666  1.0000
  C   C3        1.0  0.26636  0.24330  0.09383  1.0000
  C   C4        1.0  0.24330  0.26636  0.09383  1.0000
  C   C5        1.0  0.23403  0.28014  0.11666  1.0000
  C   C6        1.0  0.24782  0.27087  0.13949  1.0000
  C   C7        1.0  0.22951  0.27563  0.07101  1.0000
  C   C8        1.0  0.23879  0.26184  0.04818  1.0000
  C   C9        1.0  0.26184  0.23878  0.04818  1.0000
  C   C10       1.0  0.27563  0.22951  0.07101  1.0000
  C   C11       1.0  0.28466  0.23854  0.16231  1.0000
  C   C12       1.0  0.30772  0.21548  0.16231  1.0000
  C   C13       1.0  0.31699  0.20170  0.13949  1.0000
  C   C14       1.0  0.30321  0.21097  0.11666  1.0000
  C   C15       1.0  0.23855  0.28466  0.16231  1.0000
  C   C16       1.0  0.21549  0.30772  0.16231  1.0000
  C   C17       1.0  0.20170  0.31699  0.13949  1.0000
  C   C18       1.0  0.21097  0.30320  0.11666  1.0000
  H   H1        1.0  0.21222  0.29292  0.07101  1.0000
  O   O1        1.0  0.22638  0.27019  0.02764  1.0000
  O   O2        1.0  0.27019  0.22637  0.02764  1.0000
  H   H2        1.0  0.29293  0.21222  0.07101  1.0000
  H   H3        1.0  0.27771  0.24888  0.17943  1.0000
  O   O3        1.0  0.32013  0.20714  0.18285  1.0000
  O   O4        1.0  0.33775  0.18094  0.13949  1.0000
  H   H4        1.0  0.31016  0.20063  0.09954  1.0000
  H   H5        1.0  0.24889  0.27771  0.17943  1.0000
  O   O5        1.0  0.20714  0.32013  0.18285  1.0000
  O   O6        1.0  0.18095  0.33774  0.13948  1.0000
  H   H6        1.0  0.20063  0.31016  0.09954  1.0000
  C   C19       1.0  0.75220  0.27086  0.63948  1.0000
  C   C20       1.0  0.76599  0.28013  0.61666  1.0000
  C   C21       1.0  0.75672  0.26634  0.59383  1.0000
  C   C22       1.0  0.73366  0.24328  0.59383  1.0000
  C   C23       1.0  0.71987  0.23401  0.61666  1.0000
  C   C24       1.0  0.72914  0.24780  0.63948  1.0000
  C   C25       1.0  0.72439  0.22950  0.57101  1.0000
  C   C26       1.0  0.73817  0.23877  0.54818  1.0000
  C   C27       1.0  0.76123  0.26183  0.54818  1.0000
  C   C28       1.0  0.77050  0.27561  0.57101  1.0000
  C   C29       1.0  0.76147  0.28465  0.66231  1.0000
  C   C30       1.0  0.78453  0.30771  0.66231  1.0000
  C   C31       1.0  0.79832  0.31698  0.63948  1.0000
  C   C32       1.0  0.78904  0.30319  0.61666  1.0000
  C   C33       1.0  0.71535  0.23853  0.66231  1.0000
  C   C34       1.0  0.69229  0.21547  0.66231  1.0000
  C   C35       1.0  0.68302  0.20168  0.63948  1.0000
  C   C36       1.0  0.69681  0.21095  0.61666  1.0000
  H   H7        1.0  0.70709  0.21220  0.57101  1.0000
  O   O7        1.0  0.72983  0.22636  0.52764  1.0000
  O   O8        1.0  0.77364  0.27017  0.52764  1.0000
  H   H8        1.0  0.78780  0.29291  0.57101  1.0000
  H   H9        1.0  0.75113  0.27769  0.67943  1.0000
  O   O9        1.0  0.79287  0.32012  0.68285  1.0000
  O   O10       1.0  0.81907  0.33773  0.63948  1.0000
  H   H10       1.0  0.79939  0.31014  0.59954  1.0000
  H   H11       1.0  0.72230  0.24887  0.67943  1.0000
  O   O11       1.0  0.67988  0.20713  0.68285  1.0000
  O   O12       1.0  0.66227  0.18093  0.63948  1.0000
  H   H12       1.0  0.68986  0.20061  0.59954  1.0000
  C   C37       1.0  0.75219  0.72912  0.13948  1.0000
  C   C38       1.0  0.76597  0.71985  0.11666  1.0000
  C   C39       1.0  0.75670  0.73364  0.09383  1.0000
  C   C40       1.0  0.73364  0.75670  0.09383  1.0000
  C   C41       1.0  0.71985  0.76597  0.11666  1.0000
  C   C42       1.0  0.72913  0.75218  0.13948  1.0000
  C   C43       1.0  0.72437  0.77049  0.07101  1.0000
  C   C44       1.0  0.73816  0.76121  0.04818  1.0000
  C   C45       1.0  0.76122  0.73815  0.04818  1.0000
  C   C46       1.0  0.77049  0.72437  0.07101  1.0000
  C   C47       1.0  0.76146  0.71534  0.16231  1.0000
  C   C48       1.0  0.78452  0.69228  0.16231  1.0000
  C   C49       1.0  0.79830  0.68300  0.13948  1.0000
  C   C50       1.0  0.78903  0.69679  0.11666  1.0000
  C   C51       1.0  0.71534  0.76145  0.16231  1.0000
  C   C52       1.0  0.69228  0.78451  0.16231  1.0000
  C   C53       1.0  0.68301  0.79830  0.13948  1.0000
  C   C54       1.0  0.69679  0.78903  0.11666  1.0000
  H   H13       1.0  0.70708  0.78778  0.07101  1.0000
  O   O13       1.0  0.72981  0.77362  0.02764  1.0000
  O   O14       1.0  0.77363  0.72981  0.02764  1.0000
  H   H14       1.0  0.78778  0.70707  0.07101  1.0000
  H   H15       1.0  0.75112  0.72229  0.17943  1.0000
  O   O15       1.0  0.79286  0.67987  0.18285  1.0000
  O   O16       1.0  0.81906  0.66225  0.13948  1.0000
  H   H16       1.0  0.79937  0.68984  0.09954  1.0000
  H   H17       1.0  0.72229  0.75111  0.17943  1.0000
  O   O17       1.0  0.67987  0.79286  0.18285  1.0000
  O   O18       1.0  0.66225  0.81905  0.13948  1.0000
  H   H18       1.0  0.68984  0.79937  0.09954  1.0000
  C   C55       1.0  0.27085  0.75220  0.63948  1.0000
  C   C56       1.0  0.28012  0.76599  0.61666  1.0000
  C   C57       1.0  0.26633  0.75672  0.59383  1.0000
  C   C58       1.0  0.24328  0.73366  0.59383  1.0000
  C   C59       1.0  0.23401  0.71988  0.61666  1.0000
  C   C60       1.0  0.24779  0.72915  0.63948  1.0000
  C   C61       1.0  0.22949  0.72439  0.57101  1.0000
  C   C62       1.0  0.23876  0.73818  0.54818  1.0000
  C   C63       1.0  0.26182  0.76124  0.54818  1.0000
  C   C64       1.0  0.27561  0.77051  0.57101  1.0000
  C   C65       1.0  0.28464  0.76147  0.66231  1.0000
  C   C66       1.0  0.30770  0.78453  0.66231  1.0000
  C   C67       1.0  0.31697  0.79832  0.63948  1.0000
  C   C68       1.0  0.30318  0.78905  0.61666  1.0000
  C   C69       1.0  0.23852  0.71536  0.66231  1.0000
  C   C70       1.0  0.21547  0.69230  0.66231  1.0000
  C   C71       1.0  0.20168  0.68303  0.63948  1.0000
  C   C72       1.0  0.21095  0.69682  0.61666  1.0000
  H   H19       1.0  0.21219  0.70710  0.57101  1.0000
  O   O19       1.0  0.22635  0.72984  0.52764  1.0000
  O   O20       1.0  0.27016  0.77365  0.52764  1.0000
  H   H20       1.0  0.29290  0.78781  0.57101  1.0000
  H   H21       1.0  0.27769  0.75113  0.67943  1.0000
  O   O21       1.0  0.32011  0.79288  0.68285  1.0000
  O   O22       1.0  0.33772  0.81907  0.63948  1.0000
  H   H22       1.0  0.31013  0.79939  0.59954  1.0000
  H   H23       1.0  0.24887  0.72231  0.67943  1.0000
  O   O23       1.0  0.20712  0.67989  0.68285  1.0000
  O   O24       1.0  0.18093  0.66228  0.63948  1.0000
  H   H24       1.0  0.20061  0.68987  0.59954  1.0000
  C   C73       1.0  0.23401  0.71988  0.38334  1.0000
  C   C74       1.0  0.24780  0.72915  0.36052  1.0000
  C   C75       1.0  0.27085  0.75221  0.36052  1.0000
  C   C76       1.0  0.28012  0.76599  0.38334  1.0000
  C   C77       1.0  0.26634  0.75672  0.40617  1.0000
  C   C78       1.0  0.24328  0.73367  0.40617  1.0000
  C   C79       1.0  0.30318  0.78905  0.38334  1.0000
  C   C80       1.0  0.31697  0.79832  0.36052  1.0000
  C   C81       1.0  0.30770  0.78453  0.33769  1.0000
  C   C82       1.0  0.28464  0.76148  0.33769  1.0000
  C   C83       1.0  0.21095  0.69682  0.38334  1.0000
  C   C84       1.0  0.20168  0.68303  0.36052  1.0000
  C   C85       1.0  0.21547  0.69230  0.33769  1.0000
  C   C86       1.0  0.23853  0.71536  0.33769  1.0000
  C   C87       1.0  0.22949  0.72439  0.42899  1.0000
  C   C88       1.0  0.23876  0.73818  0.45182  1.0000
  C   C89       1.0  0.26182  0.76124  0.45182  1.0000
  C   C90       1.0  0.27561  0.77051  0.42899  1.0000
  H   H25       1.0  0.31013  0.79939  0.40046  1.0000
  O   O25       1.0  0.33772  0.81907  0.36052  1.0000
  O   O26       1.0  0.32011  0.79288  0.31715  1.0000
  H   H26       1.0  0.27769  0.75113  0.32057  1.0000
  H   H27       1.0  0.20061  0.68987  0.40046  1.0000
  O   O27       1.0  0.18093  0.66228  0.36052  1.0000
  O   O28       1.0  0.20712  0.67989  0.31715  1.0000
  H   H28       1.0  0.24887  0.72231  0.32057  1.0000
  H   H29       1.0  0.21219  0.70710  0.42899  1.0000
  O   O29       1.0  0.22635  0.72984  0.47236  1.0000
  O   O30       1.0  0.27016  0.77365  0.47236  1.0000
  H   H30       1.0  0.29290  0.78781  0.42899  1.0000
  C   C91       1.0  0.27088  0.24781  0.86052  1.0000
  C   C92       1.0  0.28015  0.23403  0.88334  1.0000
  C   C93       1.0  0.26636  0.24330  0.90617  1.0000
  C   C94       1.0  0.24330  0.26636  0.90617  1.0000
  C   C95       1.0  0.23403  0.28015  0.88334  1.0000
  C   C96       1.0  0.24782  0.27087  0.86052  1.0000
  C   C97       1.0  0.22951  0.27563  0.92899  1.0000
  C   C98       1.0  0.23879  0.26184  0.95182  1.0000
  C   C99       1.0  0.26185  0.23878  0.95182  1.0000
  C   C100      1.0  0.27563  0.22951  0.92899  1.0000
  C   C101      1.0  0.28466  0.23854  0.83769  1.0000
  C   C102      1.0  0.30772  0.21548  0.83769  1.0000
  C   C103      1.0  0.31700  0.20170  0.86052  1.0000
  C   C104      1.0  0.30321  0.21097  0.88334  1.0000
  C   C105      1.0  0.23855  0.28466  0.83769  1.0000
  C   C106      1.0  0.21549  0.30772  0.83769  1.0000
  C   C107      1.0  0.20170  0.31699  0.86052  1.0000
  C   C108      1.0  0.21097  0.30321  0.88334  1.0000
  H   H31       1.0  0.21222  0.29292  0.92899  1.0000
  O   O31       1.0  0.22638  0.27019  0.97236  1.0000
  O   O32       1.0  0.27019  0.22637  0.97236  1.0000
  H   H32       1.0  0.29293  0.21222  0.92899  1.0000
  H   H33       1.0  0.27771  0.24888  0.82057  1.0000
  O   O33       1.0  0.32013  0.20714  0.81715  1.0000
  O   O34       1.0  0.33775  0.18094  0.86052  1.0000
  H   H34       1.0  0.31016  0.20063  0.90046  1.0000
  H   H35       1.0  0.24889  0.27771  0.82057  1.0000
  O   O35       1.0  0.20714  0.32013  0.81715  1.0000
  O   O36       1.0  0.18095  0.33775  0.86052  1.0000
  H   H36       1.0  0.20063  0.31016  0.90046  1.0000
  C   C109      1.0  0.71987  0.23401  0.38334  1.0000
  C   C110      1.0  0.72914  0.24780  0.36052  1.0000
  C   C111      1.0  0.75220  0.27086  0.36052  1.0000
  C   C112      1.0  0.76599  0.28013  0.38334  1.0000
  C   C113      1.0  0.75672  0.26634  0.40617  1.0000
  C   C114      1.0  0.73366  0.24328  0.40617  1.0000
  C   C115      1.0  0.78905  0.30319  0.38334  1.0000
  C   C116      1.0  0.79832  0.31698  0.36052  1.0000
  C   C117      1.0  0.78453  0.30771  0.33769  1.0000
  C   C118      1.0  0.76147  0.28465  0.33769  1.0000
  C   C119      1.0  0.69681  0.21096  0.38334  1.0000
  C   C120      1.0  0.68302  0.20168  0.36052  1.0000
  C   C121      1.0  0.69229  0.21547  0.33769  1.0000
  C   C122      1.0  0.71535  0.23853  0.33769  1.0000
  C   C123      1.0  0.72439  0.22950  0.42899  1.0000
  C   C124      1.0  0.73817  0.23877  0.45182  1.0000
  C   C125      1.0  0.76123  0.26183  0.45182  1.0000
  C   C126      1.0  0.77050  0.27561  0.42899  1.0000
  H   H37       1.0  0.79939  0.31014  0.40046  1.0000
  O   O37       1.0  0.81907  0.33773  0.36052  1.0000
  O   O38       1.0  0.79287  0.32012  0.31715  1.0000
  H   H38       1.0  0.75113  0.27770  0.32057  1.0000
  H   H39       1.0  0.68986  0.20061  0.40046  1.0000
  O   O39       1.0  0.66227  0.18093  0.36052  1.0000
  O   O40       1.0  0.67988  0.20713  0.31715  1.0000
  H   H40       1.0  0.72231  0.24887  0.32057  1.0000
  H   H41       1.0  0.70709  0.21220  0.42899  1.0000
  O   O41       1.0  0.72983  0.22636  0.47236  1.0000
  O   O42       1.0  0.77364  0.27017  0.47236  1.0000
  H   H42       1.0  0.78780  0.29291  0.42899  1.0000
  C   C127      1.0  0.75219  0.72912  0.86051  1.0000
  C   C128      1.0  0.76597  0.71985  0.88334  1.0000
  C   C129      1.0  0.75670  0.73364  0.90617  1.0000
  C   C130      1.0  0.73364  0.75670  0.90617  1.0000
  C   C131      1.0  0.71986  0.76597  0.88334  1.0000
  C   C132      1.0  0.72913  0.75218  0.86051  1.0000
  C   C133      1.0  0.72437  0.77049  0.92899  1.0000
  C   C134      1.0  0.73816  0.76121  0.95182  1.0000
  C   C135      1.0  0.76122  0.73816  0.95182  1.0000
  C   C136      1.0  0.77049  0.72437  0.92899  1.0000
  C   C137      1.0  0.76146  0.71534  0.83769  1.0000
  C   C138      1.0  0.78452  0.69228  0.83769  1.0000
  C   C139      1.0  0.79830  0.68301  0.86051  1.0000
  C   C140      1.0  0.78903  0.69679  0.88334  1.0000
  C   C141      1.0  0.71534  0.76145  0.83769  1.0000
  C   C142      1.0  0.69228  0.78451  0.83769  1.0000
  C   C143      1.0  0.68301  0.79830  0.86051  1.0000
  C   C144      1.0  0.69680  0.78903  0.88334  1.0000
  H   H43       1.0  0.70708  0.78778  0.92899  1.0000
  O   O43       1.0  0.72981  0.77362  0.97236  1.0000
  O   O44       1.0  0.77363  0.72981  0.97236  1.0000
  H   H44       1.0  0.78778  0.70707  0.92899  1.0000
  H   H45       1.0  0.75112  0.72229  0.82057  1.0000
  O   O45       1.0  0.79286  0.67987  0.81715  1.0000
  O   O46       1.0  0.81906  0.66225  0.86051  1.0000
  H   H46       1.0  0.79937  0.68984  0.90046  1.0000
  H   H47       1.0  0.72229  0.75111  0.82057  1.0000
  O   O47       1.0  0.67987  0.79286  0.81715  1.0000
  O   O48       1.0  0.66226  0.81905  0.86052  1.0000
  H   H48       1.0  0.68984  0.79937  0.90046  1.0000
  Fe  Fe1       1.0  0.08671  0.50000  0.25000  1.0000
  Fe  Fe2       1.0  0.50000  0.08671  0.75000  1.0000
  Fe  Fe3       1.0  0.91329  0.50000  0.25000  1.0000
  Fe  Fe4       1.0  0.50000  0.91329  0.75000  1.0000
  Fe  Fe5       1.0  0.91329  0.50000  0.75000  1.0000
  Fe  Fe6       1.0  0.50000  0.91329  0.25000  1.0000
  Fe  Fe7       1.0  0.08671  0.50000  0.75000  1.0000
  Fe  Fe8       1.0  0.50000  0.08671  0.25000  1.0000
  C   C145      1.0  0.99990  0.53261  0.25000  1.0000
  C   C146      1.0  0.02824  0.51631  0.25000  1.0000
  C   C147      1.0  0.02824  0.48370  0.25000  1.0000
  C   C148      1.0  0.00010  0.46739  0.25000  1.0000
  C   C149      1.0  0.97176  0.48369  0.25001  1.0000
  C   C150      1.0  0.97176  0.51630  0.25000  1.0000
  H   H49       1.0  0.99990  0.55707  0.25000  1.0000
  O   O49       1.0  0.05366  0.53098  0.25000  1.0000
  O   O50       1.0  0.05366  0.46902  0.25000  1.0000
  H   H50       1.0  0.00010  0.44293  0.25001  1.0000
  O   O51       1.0  0.94635  0.46902  0.25001  1.0000
  O   O52       1.0  0.94634  0.53098  0.25000  1.0000
  C   C151      1.0  0.53261  0.99990  0.75000  1.0000
  C   C152      1.0  0.51630  0.97176  0.75000  1.0000
  C   C153      1.0  0.48369  0.97176  0.75000  1.0000
  C   C154      1.0  0.46739  0.00010  0.75000  1.0000
  C   C155      1.0  0.48370  0.02824  0.75000  1.0000
  C   C156      1.0  0.51631  0.02824  0.75000  1.0000
  H   H51       1.0  0.55707  0.99990  0.74999  1.0000
  O   O53       1.0  0.53098  0.94634  0.75000  1.0000
  O   O54       1.0  0.46902  0.94634  0.75000  1.0000
  H   H52       1.0  0.44293  0.00010  0.75000  1.0000
  O   O55       1.0  0.46902  0.05366  0.75000  1.0000
  O   O56       1.0  0.53098  0.05365  0.74999  1.0000
  C   C157      1.0  0.99990  0.53261  0.75000  1.0000
  C   C158      1.0  0.97176  0.51630  0.75000  1.0000
  C   C159      1.0  0.97176  0.48369  0.74999  1.0000
  C   C160      1.0  0.00010  0.46739  0.74999  1.0000
  C   C161      1.0  0.02824  0.48369  0.74999  1.0000
  C   C162      1.0  0.02824  0.51630  0.75000  1.0000
  H   H53       1.0  0.99990  0.55707  0.75000  1.0000
  O   O57       1.0  0.94634  0.53098  0.75000  1.0000
  O   O58       1.0  0.94634  0.46902  0.74999  1.0000
  H   H54       1.0  0.00010  0.44293  0.74999  1.0000
  O   O59       1.0  0.05366  0.46902  0.74999  1.0000
  O   O60       1.0  0.05366  0.53098  0.75000  1.0000
  C   C163      1.0  0.53261  0.99990  0.25001  1.0000
  C   C164      1.0  0.51631  0.97176  0.25001  1.0000
  C   C165      1.0  0.48370  0.97176  0.25000  1.0000
  C   C166      1.0  0.46739  0.00010  0.25000  1.0000
  C   C167      1.0  0.48370  0.02824  0.25000  1.0000
  C   C168      1.0  0.51631  0.02824  0.25001  1.0000
  H   H55       1.0  0.55707  0.99990  0.25001  1.0000
  O   O61       1.0  0.53098  0.94634  0.25001  1.0000
  O   O62       1.0  0.46902  0.94634  0.25000  1.0000
  H   H56       1.0  0.44293  0.00010  0.25000  1.0000
  O   O63       1.0  0.46902  0.05366  0.25000  1.0000
  O   O64       1.0  0.53098  0.05366  0.25001  1.0000
  C   C169      1.0  0.10875  0.45673  0.21273  1.0000
  C   C170      1.0  0.12673  0.44885  0.23713  1.0000
  C   C171      1.0  0.15007  0.42165  0.23739  1.0000
  C   C172      1.0  0.15550  0.40225  0.21326  1.0000
  C   C173      1.0  0.13748  0.41012  0.18877  1.0000
  C   C174      1.0  0.11414  0.43736  0.18858  1.0000
  O   O65       1.0  0.08585  0.48343  0.21247  1.0000
  O   O66       1.0  0.12145  0.46785  0.26082  1.0000
  H   H57       1.0  0.16335  0.41586  0.25548  1.0000
  O   O67       1.0  0.17845  0.37554  0.21361  1.0000
  O   O68       1.0  0.14268  0.39118  0.16497  1.0000
  H   H58       1.0  0.10084  0.44319  0.17051  1.0000
  Cu  Cu1       1.0  0.17745  0.35601  0.17528  1.0000
  C   C175      1.0  0.55114  0.12668  0.73705  1.0000
  C   C176      1.0  0.54325  0.10869  0.71266  1.0000
  C   C177      1.0  0.56255  0.11401  0.68847  1.0000
  C   C178      1.0  0.58980  0.13733  0.68861  1.0000
  C   C179      1.0  0.59775  0.15539  0.71306  1.0000
  C   C180      1.0  0.57838  0.15000  0.73723  1.0000
  O   O69       1.0  0.53220  0.12146  0.76079  1.0000
  O   O70       1.0  0.51654  0.08582  0.71249  1.0000
  H   H59       1.0  0.55666  0.10067  0.67044  1.0000
  O   O71       1.0  0.60869  0.14247  0.66480  1.0000
  O   O72       1.0  0.62448  0.17833  0.71336  1.0000
  H   H60       1.0  0.58423  0.16332  0.75529  1.0000
  Cu  Cu2       1.0  0.64390  0.17720  0.67496  1.0000
  C   C181      1.0  0.87332  0.55113  0.23706  1.0000
  C   C182      1.0  0.89131  0.54323  0.21267  1.0000
  C   C183      1.0  0.88599  0.56254  0.18848  1.0000
  C   C184      1.0  0.86267  0.58978  0.18862  1.0000
  C   C185      1.0  0.84461  0.59773  0.21307  1.0000
  C   C186      1.0  0.84999  0.57837  0.23724  1.0000
  O   O73       1.0  0.87853  0.53219  0.26079  1.0000
  O   O74       1.0  0.91418  0.51653  0.21250  1.0000
  H   H61       1.0  0.89933  0.55665  0.17045  1.0000
  O   O75       1.0  0.85752  0.60868  0.16481  1.0000
  O   O76       1.0  0.82166  0.62447  0.21336  1.0000
  H   H62       1.0  0.83667  0.58422  0.25529  1.0000
  Cu  Cu3       1.0  0.82279  0.64389  0.17496  1.0000
  C   C187      1.0  0.45672  0.89125  0.71273  1.0000
  C   C188      1.0  0.44884  0.87328  0.73713  1.0000
  C   C189      1.0  0.42163  0.84994  0.73739  1.0000
  C   C190      1.0  0.40223  0.84452  0.71325  1.0000
  C   C191      1.0  0.41011  0.86253  0.68876  1.0000
  C   C192      1.0  0.43735  0.88586  0.68857  1.0000
  O   O77       1.0  0.48342  0.91415  0.71247  1.0000
  O   O78       1.0  0.46784  0.87856  0.76081  1.0000
  H   H63       1.0  0.41585  0.83666  0.75547  1.0000
  O   O79       1.0  0.37552  0.82156  0.71360  1.0000
  O   O80       1.0  0.39116  0.85733  0.66497  1.0000
  H   H64       1.0  0.44318  0.89916  0.67050  1.0000
  Cu  Cu4       1.0  0.35599  0.82257  0.67528  1.0000
  C   C193      1.0  0.12668  0.55114  0.26295  1.0000
  C   C194      1.0  0.10869  0.54325  0.28734  1.0000
  C   C195      1.0  0.11401  0.56255  0.31153  1.0000
  C   C196      1.0  0.13733  0.58980  0.31139  1.0000
  C   C197      1.0  0.15538  0.59775  0.28693  1.0000
  C   C198      1.0  0.15000  0.57838  0.26277  1.0000
  O   O81       1.0  0.12146  0.53221  0.23921  1.0000
  O   O82       1.0  0.08583  0.51654  0.28751  1.0000
  H   H65       1.0  0.10067  0.55666  0.32956  1.0000
  O   O83       1.0  0.14247  0.60870  0.33520  1.0000
  O   O84       1.0  0.17833  0.62449  0.28664  1.0000
  H   H66       1.0  0.16332  0.58423  0.24471  1.0000
  Cu  Cu5       1.0  0.17720  0.64391  0.32504  1.0000
  C   C199      1.0  0.45673  0.10875  0.78727  1.0000
  C   C200      1.0  0.44886  0.12673  0.76287  1.0000
  C   C201      1.0  0.42165  0.15007  0.76261  1.0000
  C   C202      1.0  0.40225  0.15549  0.78674  1.0000
  C   C203      1.0  0.41012  0.13748  0.81123  1.0000
  C   C204      1.0  0.43737  0.11414  0.81142  1.0000
  O   O85       1.0  0.48343  0.08585  0.78752  1.0000
  O   O86       1.0  0.46785  0.12144  0.73918  1.0000
  H   H67       1.0  0.41586  0.16335  0.74452  1.0000
  O   O87       1.0  0.37554  0.17845  0.78640  1.0000
  O   O88       1.0  0.39118  0.14267  0.83503  1.0000
  H   H68       1.0  0.44319  0.10084  0.82949  1.0000
  Cu  Cu6       1.0  0.35601  0.17745  0.82472  1.0000
  C   C205      1.0  0.89125  0.45672  0.28728  1.0000
  C   C206      1.0  0.87328  0.44885  0.26288  1.0000
  C   C207      1.0  0.84994  0.42164  0.26261  1.0000
  C   C208      1.0  0.84451  0.40224  0.28675  1.0000
  C   C209      1.0  0.86253  0.41011  0.31124  1.0000
  C   C210      1.0  0.88586  0.43736  0.31143  1.0000
  O   O89       1.0  0.91415  0.48342  0.28753  1.0000
  O   O90       1.0  0.87856  0.46784  0.23919  1.0000
  H   H69       1.0  0.83666  0.41585  0.24453  1.0000
  O   O91       1.0  0.82156  0.37553  0.28640  1.0000
  O   O92       1.0  0.85733  0.39117  0.33504  1.0000
  H   H70       1.0  0.89916  0.44318  0.32950  1.0000
  Cu  Cu7       1.0  0.82256  0.35600  0.32472  1.0000
  C   C211      1.0  0.55113  0.87331  0.76294  1.0000
  C   C212      1.0  0.54324  0.89130  0.78733  1.0000
  C   C213      1.0  0.56254  0.88598  0.81152  1.0000
  C   C214      1.0  0.58979  0.86267  0.81138  1.0000
  C   C215      1.0  0.59773  0.84460  0.78693  1.0000
  C   C216      1.0  0.57837  0.84999  0.76276  1.0000
  O   O93       1.0  0.53219  0.87853  0.73921  1.0000
  O   O94       1.0  0.51653  0.91417  0.78750  1.0000
  H   H71       1.0  0.55665  0.89933  0.82955  1.0000
  O   O95       1.0  0.60868  0.85752  0.83519  1.0000
  O   O96       1.0  0.62447  0.82165  0.78664  1.0000
  H   H72       1.0  0.58422  0.83667  0.74471  1.0000
  Cu  Cu8       1.0  0.64389  0.82279  0.82504  1.0000
  C   C217      1.0  0.87332  0.55113  0.76294  1.0000
  C   C218      1.0  0.89131  0.54323  0.78733  1.0000
  C   C219      1.0  0.88599  0.56254  0.81152  1.0000
  C   C220      1.0  0.86267  0.58978  0.81138  1.0000
  C   C221      1.0  0.84461  0.59773  0.78693  1.0000
  C   C222      1.0  0.84999  0.57837  0.76276  1.0000
  O   O97       1.0  0.87853  0.53219  0.73921  1.0000
  O   O98       1.0  0.91418  0.51653  0.78750  1.0000
  H   H73       1.0  0.89933  0.55665  0.82955  1.0000
  O   O99       1.0  0.85752  0.60868  0.83519  1.0000
  O   O100      1.0  0.82166  0.62447  0.78664  1.0000
  H   H74       1.0  0.83667  0.58422  0.74471  1.0000
  Cu  Cu9       1.0  0.82279  0.64389  0.82504  1.0000
  C   C223      1.0  0.45672  0.89125  0.28728  1.0000
  C   C224      1.0  0.44885  0.87328  0.26287  1.0000
  C   C225      1.0  0.42164  0.84994  0.26261  1.0000
  C   C226      1.0  0.40224  0.84452  0.28675  1.0000
  C   C227      1.0  0.41011  0.86253  0.31124  1.0000
  C   C228      1.0  0.43735  0.88586  0.31143  1.0000
  O   O101      1.0  0.48342  0.91415  0.28753  1.0000
  O   O102      1.0  0.46784  0.87856  0.23919  1.0000
  H   H75       1.0  0.41585  0.83666  0.24453  1.0000
  O   O103      1.0  0.37553  0.82156  0.28640  1.0000
  O   O104      1.0  0.39116  0.85733  0.33503  1.0000
  H   H76       1.0  0.44318  0.89916  0.32950  1.0000
  Cu  Cu10      1.0  0.35599  0.82257  0.32472  1.0000
  C   C229      1.0  0.10875  0.45673  0.78727  1.0000
  C   C230      1.0  0.12673  0.44885  0.76287  1.0000
  C   C231      1.0  0.15007  0.42165  0.76261  1.0000
  C   C232      1.0  0.15550  0.40225  0.78674  1.0000
  C   C233      1.0  0.13748  0.41012  0.81123  1.0000
  C   C234      1.0  0.11414  0.43736  0.81142  1.0000
  O   O105      1.0  0.08585  0.48343  0.78752  1.0000
  O   O106      1.0  0.12144  0.46784  0.73918  1.0000
  H   H77       1.0  0.16335  0.41586  0.74452  1.0000
  O   O107      1.0  0.17845  0.37554  0.78640  1.0000
  O   O108      1.0  0.14268  0.39118  0.83503  1.0000
  H   H78       1.0  0.10084  0.44319  0.82949  1.0000
  Cu  Cu11      1.0  0.17745  0.35601  0.82472  1.0000
  C   C235      1.0  0.55114  0.12668  0.26295  1.0000
  C   C236      1.0  0.54325  0.10869  0.28734  1.0000
  C   C237      1.0  0.56255  0.11401  0.31153  1.0000
  C   C238      1.0  0.58980  0.13733  0.31139  1.0000
  C   C239      1.0  0.59775  0.15539  0.28693  1.0000
  C   C240      1.0  0.57838  0.15000  0.26277  1.0000
  O   O109      1.0  0.53220  0.12146  0.23921  1.0000
  O   O110      1.0  0.51654  0.08582  0.28751  1.0000
  H   H79       1.0  0.55666  0.10067  0.32956  1.0000
  O   O111      1.0  0.60869  0.14247  0.33520  1.0000
  O   O112      1.0  0.62448  0.17834  0.28664  1.0000
  H   H80       1.0  0.58423  0.16332  0.24471  1.0000
  Cu  Cu12      1.0  0.64390  0.17720  0.32504  1.0000
  C   C241      1.0  0.89125  0.45672  0.71272  1.0000
  C   C242      1.0  0.87328  0.44884  0.73713  1.0000
  C   C243      1.0  0.84994  0.42164  0.73739  1.0000
  C   C244      1.0  0.84451  0.40224  0.71325  1.0000
  C   C245      1.0  0.86253  0.41011  0.68876  1.0000
  C   C246      1.0  0.88586  0.43735  0.68857  1.0000
  O   O113      1.0  0.91415  0.48342  0.71247  1.0000
  O   O114      1.0  0.87856  0.46784  0.76081  1.0000
  H   H81       1.0  0.83666  0.41585  0.75547  1.0000
  O   O115      1.0  0.82156  0.37553  0.71360  1.0000
  O   O116      1.0  0.85733  0.39116  0.66497  1.0000
  H   H82       1.0  0.89916  0.44318  0.67050  1.0000
  Cu  Cu13      1.0  0.82256  0.35599  0.67528  1.0000
  C   C247      1.0  0.55113  0.87331  0.23706  1.0000
  C   C248      1.0  0.54324  0.89130  0.21267  1.0000
  C   C249      1.0  0.56254  0.88599  0.18848  1.0000
  C   C250      1.0  0.58979  0.86267  0.18862  1.0000
  C   C251      1.0  0.59774  0.84460  0.21307  1.0000
  C   C252      1.0  0.57837  0.84999  0.23724  1.0000
  O   O117      1.0  0.53220  0.87853  0.26079  1.0000
  O   O118      1.0  0.51653  0.91418  0.21250  1.0000
  H   H83       1.0  0.55665  0.89933  0.17045  1.0000
  O   O119      1.0  0.60868  0.85752  0.16481  1.0000
  O   O120      1.0  0.62447  0.82165  0.21336  1.0000
  H   H84       1.0  0.58422  0.83667  0.25529  1.0000
  Cu  Cu14      1.0  0.64389  0.82279  0.17496  1.0000
  C   C253      1.0  0.12668  0.55114  0.73705  1.0000
  C   C254      1.0  0.10869  0.54325  0.71266  1.0000
  C   C255      1.0  0.11401  0.56255  0.68847  1.0000
  C   C256      1.0  0.13732  0.58980  0.68861  1.0000
  C   C257      1.0  0.15538  0.59775  0.71307  1.0000
  C   C258      1.0  0.15000  0.57838  0.73723  1.0000
  O   O121      1.0  0.12146  0.53220  0.76079  1.0000
  O   O122      1.0  0.08583  0.51654  0.71249  1.0000
  H   H85       1.0  0.10067  0.55666  0.67044  1.0000
  O   O123      1.0  0.14247  0.60870  0.66480  1.0000
  O   O124      1.0  0.17833  0.62448  0.71336  1.0000
  H   H86       1.0  0.16332  0.58423  0.75529  1.0000
  Cu  Cu15      1.0  0.17720  0.64391  0.67496  1.0000
  C   C259      1.0  0.45673  0.10875  0.21273  1.0000
  C   C260      1.0  0.44886  0.12673  0.23713  1.0000
  C   C261      1.0  0.42165  0.15007  0.23739  1.0000
  C   C262      1.0  0.40225  0.15549  0.21326  1.0000
  C   C263      1.0  0.41013  0.13748  0.18877  1.0000
  C   C264      1.0  0.43737  0.11414  0.18858  1.0000
  O   O125      1.0  0.48343  0.08585  0.21248  1.0000
  O   O126      1.0  0.46785  0.12144  0.26082  1.0000
  H   H87       1.0  0.41586  0.16335  0.25548  1.0000
  O   O127      1.0  0.37554  0.17845  0.21361  1.0000
  O   O128      1.0  0.39118  0.14267  0.16497  1.0000
  H   H88       1.0  0.44319  0.10084  0.17051  1.0000
  Cu  Cu16      1.0  0.35601  0.17745  0.17528  1.0000
  Cu  Cu17      1.0  0.24828  0.24828  0.00010  1.0000
  Cu  Cu18      1.0  0.75174  0.24826  0.50000  1.0000
  Cu  Cu19      1.0  0.75172  0.75172  0.99990  1.0000
  Cu  Cu20      1.0  0.24825  0.75175  0.50000  1.0000
