data_image0
_chemical_formula_structural       C26H7O2H2O2HC4HO2HC26H7O2H2O2HC4HO2HC26H7O2H2O2HC4HO2HC26H7O2H2O2HC4HO2HC26H7O2H2O2HC4HO2HC26H7O2H2O2HC4HO2HC26H7O2H2O2HC4HO2HC26H7O2H2O2HC4HO2HFe8C6HO2HO2C6HO2HO2C6HO2HO2C6HO2HO2C6O2HO2HCuC6O2HO2HCuC6O2HO2HCuC6O2HO2HCuC6O2HO2HCuC6O2HO2HCuC6O2HO2HCuC6O2HO2HCuC6O2HO2HCuC6O2HO2HCuC6O2HO2HCuC6O2HO2HCuC6O2HO2HCuC6O2HO2HCuC6O2HO2HCuC6O2HO2HCu5
_chemical_formula_sum              "C360 H136 O128 Fe8 Cu20"
_cell_length_a       50.7976
_cell_length_b       50.7976
_cell_length_c       72.2002
_cell_angle_alpha    90.001
_cell_angle_beta     90.001
_cell_angle_gamma    89.9953

_space_group_name_H-M_alt    "P 1"
_space_group_IT_number       1

loop_
  _space_group_symop_operation_xyz
  'x, y, z'

loop_
  _atom_site_type_symbol
  _atom_site_label
  _atom_site_symmetry_multiplicity
  _atom_site_fract_x
  _atom_site_fract_y
  _atom_site_fract_z
  _atom_site_occupancy
  C   C1        1.0  0.26224  0.24079  0.14845  1.0000
  C   C2        1.0  0.27117  0.22830  0.13007  1.0000
  C   C3        1.0  0.25867  0.23723  0.11169  1.0000
  C   C4        1.0  0.23724  0.25866  0.11168  1.0000
  C   C5        1.0  0.22830  0.27117  0.13007  1.0000
  C   C6        1.0  0.24080  0.26223  0.14846  1.0000
  C   C7        1.0  0.22474  0.26760  0.09329  1.0000
  C   C8        1.0  0.23366  0.25510  0.07491  1.0000
  C   C9        1.0  0.25511  0.23366  0.07491  1.0000
  C   C10       1.0  0.26761  0.22473  0.09330  1.0000
  C   C11       1.0  0.27474  0.23186  0.16684  1.0000
  C   C12       1.0  0.29617  0.21043  0.16685  1.0000
  C   C13       1.0  0.30511  0.19792  0.14846  1.0000
  C   C14       1.0  0.29261  0.20686  0.13007  1.0000
  C   C15       1.0  0.23186  0.27474  0.16684  1.0000
  C   C16       1.0  0.21043  0.29617  0.16684  1.0000
  C   C17       1.0  0.19793  0.30510  0.14845  1.0000
  C   C18       1.0  0.20686  0.29261  0.13007  1.0000
  C   C19       1.0  0.17649  0.32655  0.14846  1.0000
  C   C20       1.0  0.16755  0.33905  0.16684  1.0000
  C   C21       1.0  0.18005  0.33012  0.18523  1.0000
  C   C22       1.0  0.20149  0.30867  0.18523  1.0000
  C   C23       1.0  0.26404  0.22115  0.05652  1.0000
  C   C24       1.0  0.25154  0.23009  0.03813  1.0000
  C   C25       1.0  0.23010  0.25153  0.03814  1.0000
  C   C26       1.0  0.22116  0.26404  0.05653  1.0000
  H   H1        1.0  0.20886  0.28348  0.09330  1.0000
  H   H2        1.0  0.28347  0.20886  0.09330  1.0000
  H   H3        1.0  0.26812  0.24112  0.18046  1.0000
  H   H4        1.0  0.29922  0.19760  0.11646  1.0000
  H   H5        1.0  0.24112  0.26812  0.18046  1.0000
  H   H6        1.0  0.19760  0.29922  0.11646  1.0000
  H   H7        1.0  0.16723  0.33316  0.13484  1.0000
  O   O1        1.0  0.14667  0.35993  0.16684  1.0000
  O   O2        1.0  0.17135  0.34229  0.20314  1.0000
  H   H8        1.0  0.21075  0.30206  0.19884  1.0000
  H   H9        1.0  0.27991  0.20529  0.05652  1.0000
  O   O3        1.0  0.26025  0.21791  0.02023  1.0000
  O   O4        1.0  0.21792  0.26024  0.02023  1.0000
  H   H10       1.0  0.20529  0.27990  0.05652  1.0000
  C   C27       1.0  0.32656  0.17648  0.14845  1.0000
  C   C28       1.0  0.33906  0.16754  0.16684  1.0000
  C   C29       1.0  0.33012  0.18005  0.18523  1.0000
  C   C30       1.0  0.30868  0.20149  0.18523  1.0000
  H   H11       1.0  0.33317  0.16723  0.13485  1.0000
  O   O5        1.0  0.35994  0.14666  0.16684  1.0000
  O   O6        1.0  0.34230  0.17135  0.20314  1.0000
  H   H12       1.0  0.30207  0.21074  0.19884  1.0000
  C   C31       1.0  0.75932  0.26213  0.64846  1.0000
  C   C32       1.0  0.77182  0.27105  0.63007  1.0000
  C   C33       1.0  0.76289  0.25855  0.61169  1.0000
  C   C34       1.0  0.74146  0.23712  0.61168  1.0000
  C   C35       1.0  0.72895  0.22819  0.63007  1.0000
  C   C36       1.0  0.73788  0.24069  0.64846  1.0000
  C   C37       1.0  0.73253  0.22461  0.59330  1.0000
  C   C38       1.0  0.74503  0.23353  0.57492  1.0000
  C   C39       1.0  0.76647  0.25497  0.57491  1.0000
  C   C40       1.0  0.77540  0.26748  0.59330  1.0000
  C   C41       1.0  0.76825  0.27464  0.66684  1.0000
  C   C42       1.0  0.78968  0.29607  0.66685  1.0000
  C   C43       1.0  0.80219  0.30500  0.64846  1.0000
  C   C44       1.0  0.79326  0.29249  0.63007  1.0000
  C   C45       1.0  0.72537  0.23176  0.66685  1.0000
  C   C46       1.0  0.70394  0.21033  0.66684  1.0000
  C   C47       1.0  0.69501  0.19783  0.64846  1.0000
  C   C48       1.0  0.70751  0.20675  0.63007  1.0000
  C   C49       1.0  0.67357  0.17639  0.64846  1.0000
  C   C50       1.0  0.66106  0.16745  0.66685  1.0000
  C   C51       1.0  0.66999  0.17996  0.68523  1.0000
  C   C52       1.0  0.69143  0.20140  0.68523  1.0000
  C   C53       1.0  0.77898  0.26391  0.55653  1.0000
  C   C54       1.0  0.77005  0.25140  0.53814  1.0000
  C   C55       1.0  0.74861  0.22996  0.53814  1.0000
  C   C56       1.0  0.73610  0.22103  0.55653  1.0000
  H   H13       1.0  0.71665  0.20874  0.59330  1.0000
  H   H14       1.0  0.79126  0.28335  0.59330  1.0000
  H   H15       1.0  0.75898  0.26802  0.68046  1.0000
  H   H16       1.0  0.80251  0.29910  0.61646  1.0000
  H   H17       1.0  0.73198  0.24102  0.68046  1.0000
  H   H18       1.0  0.70090  0.19749  0.61646  1.0000
  H   H19       1.0  0.66696  0.16713  0.63485  1.0000
  O   O7        1.0  0.64018  0.14657  0.66685  1.0000
  O   O8        1.0  0.65781  0.17126  0.70314  1.0000
  H   H20       1.0  0.69804  0.21066  0.69884  1.0000
  H   H21       1.0  0.79484  0.27977  0.55653  1.0000
  O   O9        1.0  0.78223  0.26010  0.52023  1.0000
  O   O10       1.0  0.73991  0.21778  0.52023  1.0000
  H   H22       1.0  0.72023  0.20516  0.55653  1.0000
  C   C57       1.0  0.82363  0.32644  0.64846  1.0000
  C   C58       1.0  0.83256  0.33895  0.66684  1.0000
  C   C59       1.0  0.82005  0.33001  0.68523  1.0000
  C   C60       1.0  0.79861  0.30858  0.68523  1.0000
  H   H23       1.0  0.83288  0.33305  0.63485  1.0000
  O   O11       1.0  0.85344  0.35983  0.66684  1.0000
  O   O12       1.0  0.82874  0.34220  0.70314  1.0000
  H   H24       1.0  0.78935  0.30197  0.69884  1.0000
  C   C61       1.0  0.75921  0.73775  0.14846  1.0000
  C   C62       1.0  0.77170  0.72883  0.13007  1.0000
  C   C63       1.0  0.76277  0.74133  0.11169  1.0000
  C   C64       1.0  0.74134  0.76276  0.11168  1.0000
  C   C65       1.0  0.72883  0.77170  0.13007  1.0000
  C   C66       1.0  0.73776  0.75920  0.14846  1.0000
  C   C67       1.0  0.73240  0.77526  0.09330  1.0000
  C   C68       1.0  0.74490  0.76634  0.07491  1.0000
  C   C69       1.0  0.76634  0.74489  0.07491  1.0000
  C   C70       1.0  0.77527  0.73239  0.09330  1.0000
  C   C71       1.0  0.76814  0.72525  0.16684  1.0000
  C   C72       1.0  0.78957  0.70382  0.16685  1.0000
  C   C73       1.0  0.80208  0.69488  0.14846  1.0000
  C   C74       1.0  0.79314  0.70739  0.13007  1.0000
  C   C75       1.0  0.72526  0.76813  0.16685  1.0000
  C   C76       1.0  0.70383  0.78957  0.16684  1.0000
  C   C77       1.0  0.69489  0.80207  0.14846  1.0000
  C   C78       1.0  0.70739  0.79314  0.13007  1.0000
  C   C79       1.0  0.67345  0.82351  0.14846  1.0000
  C   C80       1.0  0.66094  0.83245  0.16685  1.0000
  C   C81       1.0  0.66988  0.81995  0.18523  1.0000
  C   C82       1.0  0.69132  0.79850  0.18523  1.0000
  C   C83       1.0  0.77884  0.73596  0.05652  1.0000
  C   C84       1.0  0.76991  0.74846  0.03814  1.0000
  C   C85       1.0  0.74847  0.76990  0.03814  1.0000
  C   C86       1.0  0.73596  0.77884  0.05653  1.0000
  H   H25       1.0  0.71652  0.79114  0.09330  1.0000
  H   H26       1.0  0.79114  0.71652  0.09330  1.0000
  H   H27       1.0  0.75888  0.73187  0.18046  1.0000
  H   H28       1.0  0.80239  0.70077  0.11646  1.0000
  H   H29       1.0  0.73187  0.75888  0.18046  1.0000
  H   H30       1.0  0.70077  0.80240  0.11646  1.0000
  H   H31       1.0  0.66684  0.83276  0.13485  1.0000
  O   O13       1.0  0.64006  0.85333  0.16685  1.0000
  O   O14       1.0  0.65770  0.82865  0.20314  1.0000
  H   H32       1.0  0.69794  0.78925  0.19884  1.0000
  H   H33       1.0  0.79471  0.72009  0.05653  1.0000
  O   O15       1.0  0.78209  0.73976  0.02023  1.0000
  O   O16       1.0  0.73977  0.78208  0.02023  1.0000
  H   H34       1.0  0.72009  0.79471  0.05653  1.0000
  C   C87       1.0  0.82352  0.67344  0.14846  1.0000
  C   C88       1.0  0.83245  0.66094  0.16684  1.0000
  C   C89       1.0  0.81995  0.66988  0.18523  1.0000
  C   C90       1.0  0.79850  0.69132  0.18523  1.0000
  H   H35       1.0  0.83277  0.66683  0.13485  1.0000
  O   O17       1.0  0.85333  0.64006  0.16684  1.0000
  O   O18       1.0  0.82865  0.65770  0.20314  1.0000
  H   H36       1.0  0.78925  0.69793  0.19884  1.0000
  C   C91       1.0  0.26214  0.75932  0.64846  1.0000
  C   C92       1.0  0.27106  0.77181  0.63008  1.0000
  C   C93       1.0  0.25855  0.76288  0.61169  1.0000
  C   C94       1.0  0.23712  0.74146  0.61168  1.0000
  C   C95       1.0  0.22819  0.72895  0.63007  1.0000
  C   C96       1.0  0.24070  0.73788  0.64846  1.0000
  C   C97       1.0  0.22462  0.73253  0.59330  1.0000
  C   C98       1.0  0.23354  0.74502  0.57492  1.0000
  C   C99       1.0  0.25498  0.76646  0.57491  1.0000
  C   C100      1.0  0.26748  0.77539  0.59330  1.0000
  C   C101      1.0  0.27464  0.76825  0.66684  1.0000
  C   C102      1.0  0.29607  0.78967  0.66685  1.0000
  C   C103      1.0  0.30500  0.80218  0.64846  1.0000
  C   C104      1.0  0.29250  0.79325  0.63007  1.0000
  C   C105      1.0  0.23176  0.72537  0.66685  1.0000
  C   C106      1.0  0.21034  0.70394  0.66684  1.0000
  C   C107      1.0  0.19783  0.69501  0.64846  1.0000
  C   C108      1.0  0.20675  0.70751  0.63007  1.0000
  C   C109      1.0  0.17639  0.67357  0.64846  1.0000
  C   C110      1.0  0.16746  0.66106  0.66685  1.0000
  C   C111      1.0  0.17996  0.66999  0.68523  1.0000
  C   C112      1.0  0.20140  0.69143  0.68523  1.0000
  C   C113      1.0  0.26391  0.77897  0.55653  1.0000
  C   C114      1.0  0.25140  0.77004  0.53814  1.0000
  C   C115      1.0  0.22996  0.74860  0.53814  1.0000
  C   C116      1.0  0.22103  0.73609  0.55653  1.0000
  H   H37       1.0  0.20874  0.71665  0.59330  1.0000
  H   H38       1.0  0.28335  0.79126  0.59330  1.0000
  H   H39       1.0  0.26802  0.75898  0.68046  1.0000
  H   H40       1.0  0.29910  0.80251  0.61646  1.0000
  H   H41       1.0  0.24102  0.73198  0.68046  1.0000
  H   H42       1.0  0.19749  0.70090  0.61646  1.0000
  H   H43       1.0  0.16713  0.66696  0.63485  1.0000
  O   O19       1.0  0.14658  0.64018  0.66685  1.0000
  O   O20       1.0  0.17127  0.65781  0.70314  1.0000
  H   H44       1.0  0.21066  0.69804  0.69884  1.0000
  H   H45       1.0  0.27978  0.79484  0.55653  1.0000
  O   O21       1.0  0.26010  0.78222  0.52023  1.0000
  O   O22       1.0  0.21778  0.73990  0.52023  1.0000
  H   H46       1.0  0.20517  0.72023  0.55653  1.0000
  C   C117      1.0  0.32644  0.82362  0.64846  1.0000
  C   C118      1.0  0.33895  0.83255  0.66684  1.0000
  C   C119      1.0  0.33002  0.82004  0.68523  1.0000
  C   C120      1.0  0.30858  0.79860  0.68523  1.0000
  H   H47       1.0  0.33305  0.83288  0.63485  1.0000
  O   O23       1.0  0.35983  0.85343  0.66684  1.0000
  O   O24       1.0  0.34220  0.82874  0.70314  1.0000
  H   H48       1.0  0.30197  0.78935  0.69884  1.0000
  C   C121      1.0  0.22818  0.72894  0.36992  1.0000
  C   C122      1.0  0.24069  0.73787  0.35155  1.0000
  C   C123      1.0  0.26212  0.75930  0.35155  1.0000
  C   C124      1.0  0.27105  0.77181  0.36992  1.0000
  C   C125      1.0  0.25855  0.76288  0.38831  1.0000
  C   C126      1.0  0.23711  0.74144  0.38831  1.0000
  C   C127      1.0  0.29249  0.79325  0.36992  1.0000
  C   C128      1.0  0.30499  0.80218  0.35155  1.0000
  C   C129      1.0  0.29606  0.78967  0.33316  1.0000
  C   C130      1.0  0.27463  0.76823  0.33316  1.0000
  C   C131      1.0  0.20675  0.70750  0.36992  1.0000
  C   C132      1.0  0.19781  0.69500  0.35155  1.0000
  C   C133      1.0  0.21032  0.70392  0.33316  1.0000
  C   C134      1.0  0.23176  0.72536  0.33316  1.0000
  C   C135      1.0  0.22460  0.73251  0.40670  1.0000
  C   C136      1.0  0.23354  0.74502  0.42508  1.0000
  C   C137      1.0  0.25497  0.76646  0.42508  1.0000
  C   C138      1.0  0.26748  0.77539  0.40670  1.0000
  C   C139      1.0  0.26390  0.77896  0.44347  1.0000
  C   C140      1.0  0.25139  0.77003  0.46186  1.0000
  C   C141      1.0  0.22996  0.74860  0.46186  1.0000
  C   C142      1.0  0.22103  0.73609  0.44347  1.0000
  C   C143      1.0  0.30857  0.79860  0.31477  1.0000
  C   C144      1.0  0.33001  0.82003  0.31477  1.0000
  C   C145      1.0  0.33894  0.83254  0.33316  1.0000
  C   C146      1.0  0.32643  0.82361  0.35155  1.0000
  H   H49       1.0  0.29910  0.80250  0.38354  1.0000
  H   H50       1.0  0.26802  0.75897  0.31955  1.0000
  H   H51       1.0  0.19749  0.70089  0.38354  1.0000
  H   H52       1.0  0.24101  0.73197  0.31955  1.0000
  H   H53       1.0  0.20874  0.71665  0.40670  1.0000
  H   H54       1.0  0.28334  0.79126  0.40670  1.0000
  H   H55       1.0  0.27977  0.79483  0.44347  1.0000
  O   O25       1.0  0.26009  0.78222  0.47977  1.0000
  O   O26       1.0  0.21778  0.73990  0.47977  1.0000
  H   H56       1.0  0.20516  0.72022  0.44347  1.0000
  H   H57       1.0  0.30196  0.78934  0.30116  1.0000
  O   O27       1.0  0.34219  0.82873  0.29686  1.0000
  O   O28       1.0  0.35982  0.85342  0.33316  1.0000
  H   H58       1.0  0.33304  0.83287  0.36515  1.0000
  C   C147      1.0  0.20139  0.69142  0.31477  1.0000
  C   C148      1.0  0.17995  0.66998  0.31477  1.0000
  C   C149      1.0  0.16745  0.66105  0.33316  1.0000
  C   C150      1.0  0.17638  0.67356  0.35155  1.0000
  H   H59       1.0  0.21065  0.69803  0.30116  1.0000
  O   O29       1.0  0.17126  0.65780  0.29686  1.0000
  O   O30       1.0  0.14657  0.64017  0.33316  1.0000
  H   H60       1.0  0.16712  0.66695  0.36515  1.0000
  C   C151      1.0  0.26225  0.24079  0.85154  1.0000
  C   C152      1.0  0.27117  0.22830  0.86993  1.0000
  C   C153      1.0  0.25867  0.23723  0.88831  1.0000
  C   C154      1.0  0.23724  0.25866  0.88832  1.0000
  C   C155      1.0  0.22830  0.27117  0.86993  1.0000
  C   C156      1.0  0.24080  0.26224  0.85154  1.0000
  C   C157      1.0  0.22474  0.26760  0.90670  1.0000
  C   C158      1.0  0.23366  0.25510  0.92509  1.0000
  C   C159      1.0  0.25511  0.23366  0.92509  1.0000
  C   C160      1.0  0.26761  0.22473  0.90670  1.0000
  C   C161      1.0  0.27475  0.23186  0.83316  1.0000
  C   C162      1.0  0.29618  0.21043  0.83315  1.0000
  C   C163      1.0  0.30512  0.19792  0.85154  1.0000
  C   C164      1.0  0.29261  0.20686  0.86993  1.0000
  C   C165      1.0  0.23187  0.27474  0.83315  1.0000
  C   C166      1.0  0.21043  0.29617  0.83316  1.0000
  C   C167      1.0  0.19793  0.30511  0.85155  1.0000
  C   C168      1.0  0.20686  0.29261  0.86993  1.0000
  C   C169      1.0  0.17649  0.32655  0.85154  1.0000
  C   C170      1.0  0.16755  0.33906  0.83315  1.0000
  C   C171      1.0  0.18005  0.33012  0.81477  1.0000
  C   C172      1.0  0.20150  0.30868  0.81477  1.0000
  C   C173      1.0  0.26404  0.22116  0.94348  1.0000
  C   C174      1.0  0.25154  0.23009  0.96186  1.0000
  C   C175      1.0  0.23010  0.25153  0.96186  1.0000
  C   C176      1.0  0.22116  0.26404  0.94347  1.0000
  H   H61       1.0  0.20886  0.28348  0.90670  1.0000
  H   H62       1.0  0.28348  0.20886  0.90670  1.0000
  H   H63       1.0  0.26813  0.24112  0.81954  1.0000
  H   H64       1.0  0.29923  0.19761  0.88354  1.0000
  H   H65       1.0  0.24112  0.26813  0.81954  1.0000
  H   H66       1.0  0.19760  0.29923  0.88354  1.0000
  H   H67       1.0  0.16724  0.33316  0.86515  1.0000
  O   O31       1.0  0.14667  0.35994  0.83315  1.0000
  O   O32       1.0  0.17135  0.34230  0.79686  1.0000
  H   H68       1.0  0.21075  0.30206  0.80116  1.0000
  H   H69       1.0  0.27991  0.20529  0.94347  1.0000
  O   O33       1.0  0.26024  0.21791  0.97977  1.0000
  O   O34       1.0  0.21792  0.26024  0.97977  1.0000
  H   H70       1.0  0.20530  0.27991  0.94347  1.0000
  C   C177      1.0  0.32656  0.17648  0.85154  1.0000
  C   C178      1.0  0.33906  0.16755  0.83316  1.0000
  C   C179      1.0  0.33012  0.18005  0.81477  1.0000
  C   C180      1.0  0.30868  0.20150  0.81477  1.0000
  H   H71       1.0  0.33317  0.16723  0.86515  1.0000
  O   O35       1.0  0.35994  0.14667  0.83316  1.0000
  O   O36       1.0  0.34230  0.17135  0.79686  1.0000
  H   H72       1.0  0.30207  0.21075  0.80116  1.0000
  C   C181      1.0  0.72894  0.22818  0.36992  1.0000
  C   C182      1.0  0.73787  0.24068  0.35155  1.0000
  C   C183      1.0  0.75931  0.26212  0.35155  1.0000
  C   C184      1.0  0.77181  0.27105  0.36992  1.0000
  C   C185      1.0  0.76288  0.25854  0.38831  1.0000
  C   C186      1.0  0.74145  0.23711  0.38831  1.0000
  C   C187      1.0  0.79325  0.29249  0.36992  1.0000
  C   C188      1.0  0.80218  0.30499  0.35155  1.0000
  C   C189      1.0  0.78967  0.29606  0.33316  1.0000
  C   C190      1.0  0.76824  0.27462  0.33316  1.0000
  C   C191      1.0  0.70750  0.20674  0.36992  1.0000
  C   C192      1.0  0.69500  0.19781  0.35155  1.0000
  C   C193      1.0  0.70393  0.21032  0.33316  1.0000
  C   C194      1.0  0.72536  0.23175  0.33316  1.0000
  C   C195      1.0  0.73252  0.22460  0.40671  1.0000
  C   C196      1.0  0.74503  0.23353  0.42508  1.0000
  C   C197      1.0  0.76646  0.25497  0.42508  1.0000
  C   C198      1.0  0.77539  0.26747  0.40671  1.0000
  C   C199      1.0  0.77897  0.26390  0.44347  1.0000
  C   C200      1.0  0.77004  0.25139  0.46186  1.0000
  C   C201      1.0  0.74860  0.22995  0.46186  1.0000
  C   C202      1.0  0.73610  0.22102  0.44347  1.0000
  C   C203      1.0  0.79860  0.30857  0.31477  1.0000
  C   C204      1.0  0.82004  0.33000  0.31477  1.0000
  C   C205      1.0  0.83254  0.33893  0.33316  1.0000
  C   C206      1.0  0.82362  0.32643  0.35155  1.0000
  H   H73       1.0  0.80251  0.29909  0.38355  1.0000
  H   H74       1.0  0.75898  0.26801  0.31955  1.0000
  H   H75       1.0  0.70090  0.19748  0.38354  1.0000
  H   H76       1.0  0.73197  0.24101  0.31955  1.0000
  H   H77       1.0  0.71665  0.20873  0.40671  1.0000
  H   H78       1.0  0.79126  0.28334  0.40671  1.0000
  H   H79       1.0  0.79484  0.27976  0.44347  1.0000
  O   O37       1.0  0.78222  0.26009  0.47977  1.0000
  O   O38       1.0  0.73991  0.21777  0.47977  1.0000
  H   H80       1.0  0.72023  0.20516  0.44347  1.0000
  H   H81       1.0  0.78934  0.30196  0.30116  1.0000
  O   O39       1.0  0.82873  0.34218  0.29686  1.0000
  O   O40       1.0  0.85342  0.35981  0.33316  1.0000
  H   H82       1.0  0.83287  0.33304  0.36515  1.0000
  C   C207      1.0  0.69142  0.20139  0.31477  1.0000
  C   C208      1.0  0.66998  0.17995  0.31477  1.0000
  C   C209      1.0  0.66106  0.16744  0.33316  1.0000
  C   C210      1.0  0.67356  0.17637  0.35155  1.0000
  H   H83       1.0  0.69803  0.21064  0.30116  1.0000
  O   O41       1.0  0.65780  0.17125  0.29686  1.0000
  O   O42       1.0  0.64018  0.14657  0.33316  1.0000
  H   H84       1.0  0.66695  0.16712  0.36515  1.0000
  C   C211      1.0  0.75921  0.73776  0.85155  1.0000
  C   C212      1.0  0.77170  0.72883  0.86993  1.0000
  C   C213      1.0  0.76277  0.74133  0.88831  1.0000
  C   C214      1.0  0.74134  0.76276  0.88832  1.0000
  C   C215      1.0  0.72883  0.77170  0.86993  1.0000
  C   C216      1.0  0.73777  0.75920  0.85154  1.0000
  C   C217      1.0  0.73240  0.77527  0.90671  1.0000
  C   C218      1.0  0.74490  0.76634  0.92509  1.0000
  C   C219      1.0  0.76634  0.74490  0.92509  1.0000
  C   C220      1.0  0.77527  0.73239  0.90670  1.0000
  C   C221      1.0  0.76815  0.72526  0.83316  1.0000
  C   C222      1.0  0.78957  0.70383  0.83315  1.0000
  C   C223      1.0  0.80208  0.69489  0.85154  1.0000
  C   C224      1.0  0.79315  0.70739  0.86993  1.0000
  C   C225      1.0  0.72526  0.76814  0.83315  1.0000
  C   C226      1.0  0.70383  0.78957  0.83316  1.0000
  C   C227      1.0  0.69490  0.80207  0.85155  1.0000
  C   C228      1.0  0.70739  0.79314  0.86993  1.0000
  C   C229      1.0  0.67346  0.82351  0.85154  1.0000
  C   C230      1.0  0.66095  0.83245  0.83316  1.0000
  C   C231      1.0  0.66988  0.81995  0.81477  1.0000
  C   C232      1.0  0.69133  0.79851  0.81477  1.0000
  C   C233      1.0  0.77885  0.73596  0.94348  1.0000
  C   C234      1.0  0.76991  0.74846  0.96186  1.0000
  C   C235      1.0  0.74847  0.76990  0.96186  1.0000
  C   C236      1.0  0.73596  0.77884  0.94347  1.0000
  H   H85       1.0  0.71653  0.79114  0.90670  1.0000
  H   H86       1.0  0.79114  0.71653  0.90670  1.0000
  H   H87       1.0  0.75888  0.73188  0.81954  1.0000
  H   H88       1.0  0.80240  0.70078  0.88354  1.0000
  H   H89       1.0  0.73188  0.75888  0.81954  1.0000
  H   H90       1.0  0.70078  0.80240  0.88354  1.0000
  H   H91       1.0  0.66684  0.83277  0.86515  1.0000
  O   O43       1.0  0.64007  0.85333  0.83316  1.0000
  O   O44       1.0  0.65771  0.82865  0.79686  1.0000
  H   H92       1.0  0.69794  0.78925  0.80116  1.0000
  H   H93       1.0  0.79471  0.72009  0.94348  1.0000
  O   O45       1.0  0.78209  0.73976  0.97977  1.0000
  O   O46       1.0  0.73977  0.78208  0.97977  1.0000
  H   H94       1.0  0.72010  0.79471  0.94348  1.0000
  C   C237      1.0  0.82352  0.67345  0.85155  1.0000
  C   C238      1.0  0.83246  0.66094  0.83316  1.0000
  C   C239      1.0  0.81995  0.66988  0.81477  1.0000
  C   C240      1.0  0.79851  0.69132  0.81477  1.0000
  H   H95       1.0  0.83277  0.66683  0.86515  1.0000
  O   O47       1.0  0.85334  0.64006  0.83316  1.0000
  O   O48       1.0  0.82866  0.65770  0.79686  1.0000
  H   H96       1.0  0.78926  0.69794  0.80116  1.0000
  Fe  Fe1       1.0  0.07319  0.50001  0.25001  1.0000
  Fe  Fe2       1.0  0.50002  0.07320  0.74999  1.0000
  Fe  Fe3       1.0  0.92680  0.49998  0.25001  1.0000
  Fe  Fe4       1.0  0.49999  0.92681  0.74999  1.0000
  Fe  Fe5       1.0  0.92681  0.49999  0.74999  1.0000
  Fe  Fe6       1.0  0.49998  0.92681  0.25001  1.0000
  Fe  Fe7       1.0  0.07319  0.50002  0.74999  1.0000
  Fe  Fe8       1.0  0.50001  0.07319  0.25001  1.0000
  C   C241      1.0  0.99990  0.52756  0.25001  1.0000
  C   C242      1.0  0.02386  0.51378  0.25001  1.0000
  C   C243      1.0  0.02387  0.48622  0.25001  1.0000
  C   C244      1.0  0.00010  0.47244  0.25001  1.0000
  C   C245      1.0  0.97613  0.48621  0.25001  1.0000
  C   C246      1.0  0.97612  0.51377  0.25001  1.0000
  H   H97       1.0  0.99990  0.54823  0.25001  1.0000
  O   O49       1.0  0.04534  0.52619  0.25001  1.0000
  O   O50       1.0  0.04535  0.47383  0.25001  1.0000
  H   H98       1.0  0.00010  0.45177  0.25001  1.0000
  O   O51       1.0  0.95466  0.47380  0.25001  1.0000
  O   O52       1.0  0.95464  0.52617  0.25001  1.0000
  C   C247      1.0  0.52756  0.99990  0.74999  1.0000
  C   C248      1.0  0.51378  0.97613  0.74999  1.0000
  C   C249      1.0  0.48622  0.97614  0.74999  1.0000
  C   C250      1.0  0.47244  0.00010  0.74999  1.0000
  C   C251      1.0  0.48623  0.02388  0.74999  1.0000
  C   C252      1.0  0.51379  0.02387  0.74999  1.0000
  H   H99       1.0  0.54823  0.99990  0.74999  1.0000
  O   O53       1.0  0.52617  0.95465  0.74999  1.0000
  O   O54       1.0  0.47381  0.95467  0.74999  1.0000
  H   H100      1.0  0.45177  0.00010  0.74999  1.0000
  O   O55       1.0  0.47383  0.04536  0.74999  1.0000
  O   O56       1.0  0.52620  0.04535  0.74999  1.0000
  C   C253      1.0  0.99990  0.52756  0.74999  1.0000
  C   C254      1.0  0.97613  0.51378  0.74999  1.0000
  C   C255      1.0  0.97614  0.48622  0.74999  1.0000
  C   C256      1.0  0.00010  0.47244  0.74999  1.0000
  C   C257      1.0  0.02387  0.48623  0.74999  1.0000
  C   C258      1.0  0.02386  0.51379  0.74999  1.0000
  H   H101      1.0  0.99990  0.54824  0.74999  1.0000
  O   O57       1.0  0.95464  0.52617  0.74999  1.0000
  O   O58       1.0  0.95466  0.47381  0.74999  1.0000
  H   H102      1.0  0.00010  0.45177  0.74999  1.0000
  O   O59       1.0  0.04536  0.47383  0.74999  1.0000
  O   O60       1.0  0.04534  0.52620  0.74999  1.0000
  C   C259      1.0  0.52756  0.99990  0.25001  1.0000
  C   C260      1.0  0.51377  0.97613  0.25001  1.0000
  C   C261      1.0  0.48621  0.97614  0.25001  1.0000
  C   C262      1.0  0.47243  0.00010  0.25001  1.0000
  C   C263      1.0  0.48622  0.02387  0.25001  1.0000
  C   C264      1.0  0.51378  0.02386  0.25001  1.0000
  H   H103      1.0  0.54823  0.99990  0.25001  1.0000
  O   O61       1.0  0.52617  0.95464  0.25001  1.0000
  O   O62       1.0  0.47380  0.95466  0.25001  1.0000
  H   H104      1.0  0.45176  0.00010  0.25001  1.0000
  O   O63       1.0  0.47382  0.04536  0.25001  1.0000
  O   O64       1.0  0.52619  0.04534  0.25001  1.0000
  C   C265      1.0  0.09118  0.46263  0.22261  1.0000
  C   C266      1.0  0.10645  0.45572  0.24036  1.0000
  C   C267      1.0  0.12536  0.43205  0.24057  1.0000
  C   C268      1.0  0.12905  0.41523  0.22302  1.0000
  C   C269      1.0  0.11375  0.42213  0.20520  1.0000
  C   C270      1.0  0.09484  0.44583  0.20505  1.0000
  O   O65       1.0  0.07262  0.48585  0.22240  1.0000
  O   O66       1.0  0.10286  0.47219  0.25758  1.0000
  H   H105      1.0  0.13664  0.42698  0.25373  1.0000
  O   O67       1.0  0.14765  0.39199  0.22330  1.0000
  O   O68       1.0  0.11726  0.40570  0.18790  1.0000
  H   H106      1.0  0.08354  0.45093  0.19190  1.0000
  Cu  Cu1       1.0  0.14573  0.37508  0.19543  1.0000
  C   C271      1.0  0.54433  0.10639  0.74030  1.0000
  C   C272      1.0  0.53740  0.09112  0.72255  1.0000
  C   C273      1.0  0.55415  0.09471  0.70496  1.0000
  C   C274      1.0  0.57786  0.11358  0.70509  1.0000
  C   C275      1.0  0.58483  0.12892  0.72288  1.0000
  C   C276      1.0  0.56803  0.12527  0.74045  1.0000
  O   O69       1.0  0.52790  0.10287  0.75755  1.0000
  O   O70       1.0  0.51416  0.07261  0.72240  1.0000
  H   H107      1.0  0.54898  0.08339  0.69184  1.0000
  O   O71       1.0  0.59426  0.11705  0.68778  1.0000
  O   O72       1.0  0.60810  0.14750  0.72312  1.0000
  H   H108      1.0  0.57316  0.13658  0.75359  1.0000
  Cu  Cu2       1.0  0.62492  0.14545  0.69520  1.0000
  C   C277      1.0  0.89358  0.54426  0.24031  1.0000
  C   C278      1.0  0.90886  0.53734  0.22256  1.0000
  C   C279      1.0  0.90526  0.55408  0.20498  1.0000
  C   C280      1.0  0.88637  0.57778  0.20510  1.0000
  C   C281      1.0  0.87103  0.58475  0.22289  1.0000
  C   C282      1.0  0.87468  0.56795  0.24046  1.0000
  O   O73       1.0  0.89712  0.52784  0.25757  1.0000
  O   O74       1.0  0.92739  0.51411  0.22242  1.0000
  H   H109      1.0  0.91659  0.54892  0.19186  1.0000
  O   O75       1.0  0.88289  0.59417  0.18779  1.0000
  O   O76       1.0  0.85243  0.60801  0.22312  1.0000
  H   H110      1.0  0.86337  0.57308  0.25360  1.0000
  Cu  Cu3       1.0  0.85447  0.62482  0.19520  1.0000
  C   C283      1.0  0.46258  0.90884  0.72259  1.0000
  C   C284      1.0  0.45567  0.89358  0.74035  1.0000
  C   C285      1.0  0.43199  0.87468  0.74056  1.0000
  C   C286      1.0  0.41516  0.87100  0.72302  1.0000
  C   C287      1.0  0.42206  0.88630  0.70519  1.0000
  C   C288      1.0  0.44577  0.90519  0.70503  1.0000
  O   O77       1.0  0.48581  0.92738  0.72238  1.0000
  O   O78       1.0  0.47215  0.89716  0.75756  1.0000
  H   H111      1.0  0.42692  0.86341  0.75372  1.0000
  O   O79       1.0  0.39191  0.85242  0.72329  1.0000
  O   O80       1.0  0.40563  0.88279  0.68790  1.0000
  H   H112      1.0  0.45088  0.91648  0.69188  1.0000
  Cu  Cu4       1.0  0.37500  0.85435  0.69543  1.0000
  C   C289      1.0  0.10638  0.54432  0.25970  1.0000
  C   C290      1.0  0.09111  0.53739  0.27745  1.0000
  C   C291      1.0  0.09471  0.55414  0.29504  1.0000
  C   C292      1.0  0.11358  0.57786  0.29491  1.0000
  C   C293      1.0  0.12891  0.58483  0.27712  1.0000
  C   C294      1.0  0.12526  0.56802  0.25955  1.0000
  O   O81       1.0  0.10286  0.52789  0.24245  1.0000
  O   O82       1.0  0.07260  0.51415  0.27760  1.0000
  H   H113      1.0  0.08338  0.54898  0.30816  1.0000
  O   O83       1.0  0.11705  0.59425  0.31222  1.0000
  O   O84       1.0  0.14749  0.60809  0.27688  1.0000
  H   H114      1.0  0.13657  0.57315  0.24641  1.0000
  Cu  Cu5       1.0  0.14545  0.62491  0.30480  1.0000
  C   C295      1.0  0.46263  0.09119  0.77739  1.0000
  C   C296      1.0  0.45573  0.10646  0.75964  1.0000
  C   C297      1.0  0.43206  0.12537  0.75943  1.0000
  C   C298      1.0  0.41523  0.12906  0.77697  1.0000
  C   C299      1.0  0.42214  0.11375  0.79480  1.0000
  C   C300      1.0  0.44583  0.09485  0.79495  1.0000
  O   O85       1.0  0.48586  0.07263  0.77760  1.0000
  O   O86       1.0  0.47220  0.10286  0.74242  1.0000
  H   H115      1.0  0.42699  0.13665  0.74627  1.0000
  O   O87       1.0  0.39200  0.14766  0.77670  1.0000
  O   O88       1.0  0.40570  0.11727  0.81209  1.0000
  H   H116      1.0  0.45094  0.08355  0.80810  1.0000
  Cu  Cu6       1.0  0.37509  0.14573  0.80457  1.0000
  C   C301      1.0  0.90883  0.46257  0.27741  1.0000
  C   C302      1.0  0.89357  0.45566  0.25965  1.0000
  C   C303      1.0  0.87468  0.43198  0.25944  1.0000
  C   C304      1.0  0.87100  0.41515  0.27698  1.0000
  C   C305      1.0  0.88629  0.42206  0.29481  1.0000
  C   C306      1.0  0.90518  0.44577  0.29497  1.0000
  O   O89       1.0  0.92737  0.48580  0.27762  1.0000
  O   O90       1.0  0.89715  0.47214  0.24244  1.0000
  H   H117      1.0  0.86340  0.42691  0.24628  1.0000
  O   O91       1.0  0.85241  0.39190  0.27671  1.0000
  O   O92       1.0  0.88279  0.40562  0.31210  1.0000
  H   H118      1.0  0.91648  0.45088  0.30812  1.0000
  Cu  Cu7       1.0  0.85435  0.37499  0.30457  1.0000
  C   C307      1.0  0.54427  0.89359  0.75969  1.0000
  C   C308      1.0  0.53735  0.90887  0.77744  1.0000
  C   C309      1.0  0.55409  0.90527  0.79502  1.0000
  C   C310      1.0  0.57779  0.88638  0.79490  1.0000
  C   C311      1.0  0.58476  0.87104  0.77711  1.0000
  C   C312      1.0  0.56796  0.87469  0.75954  1.0000
  O   O93       1.0  0.52784  0.89713  0.74243  1.0000
  O   O94       1.0  0.51412  0.92740  0.77758  1.0000
  H   H119      1.0  0.54893  0.91660  0.80815  1.0000
  O   O95       1.0  0.59418  0.88290  0.81221  1.0000
  O   O96       1.0  0.60801  0.85244  0.77688  1.0000
  H   H120      1.0  0.57309  0.86338  0.74640  1.0000
  Cu  Cu8       1.0  0.62483  0.85447  0.80480  1.0000
  C   C313      1.0  0.89359  0.54427  0.75969  1.0000
  C   C314      1.0  0.90887  0.53735  0.77744  1.0000
  C   C315      1.0  0.90527  0.55409  0.79502  1.0000
  C   C316      1.0  0.88638  0.57779  0.79490  1.0000
  C   C317      1.0  0.87103  0.58476  0.77711  1.0000
  C   C318      1.0  0.87469  0.56796  0.75954  1.0000
  O   O97       1.0  0.89712  0.52784  0.74243  1.0000
  O   O98       1.0  0.92740  0.51412  0.77758  1.0000
  H   H121      1.0  0.91660  0.54893  0.80814  1.0000
  O   O99       1.0  0.88290  0.59418  0.81221  1.0000
  O   O100      1.0  0.85244  0.60802  0.77688  1.0000
  H   H122      1.0  0.86337  0.57309  0.74640  1.0000
  Cu  Cu9       1.0  0.85447  0.62483  0.80480  1.0000
  C   C319      1.0  0.46257  0.90884  0.27741  1.0000
  C   C320      1.0  0.45566  0.89357  0.25965  1.0000
  C   C321      1.0  0.43198  0.87468  0.25944  1.0000
  C   C322      1.0  0.41515  0.87100  0.27698  1.0000
  C   C323      1.0  0.42206  0.88629  0.29481  1.0000
  C   C324      1.0  0.44577  0.90518  0.29497  1.0000
  O   O101      1.0  0.48580  0.92737  0.27762  1.0000
  O   O102      1.0  0.47214  0.89715  0.24243  1.0000
  H   H123      1.0  0.42691  0.86340  0.24627  1.0000
  O   O103      1.0  0.39191  0.85241  0.27670  1.0000
  O   O104      1.0  0.40562  0.88279  0.31210  1.0000
  H   H124      1.0  0.45088  0.91648  0.30812  1.0000
  Cu  Cu10      1.0  0.37499  0.85435  0.30457  1.0000
  C   C325      1.0  0.09118  0.46263  0.77739  1.0000
  C   C326      1.0  0.10645  0.45573  0.75964  1.0000
  C   C327      1.0  0.12536  0.43206  0.75943  1.0000
  C   C328      1.0  0.12906  0.41523  0.77698  1.0000
  C   C329      1.0  0.11375  0.42214  0.79480  1.0000
  C   C330      1.0  0.09484  0.44583  0.79495  1.0000
  O   O105      1.0  0.07263  0.48586  0.77760  1.0000
  O   O106      1.0  0.10286  0.47220  0.74242  1.0000
  H   H125      1.0  0.13665  0.42699  0.74627  1.0000
  O   O107      1.0  0.14766  0.39200  0.77670  1.0000
  O   O108      1.0  0.11727  0.40570  0.81210  1.0000
  H   H126      1.0  0.08354  0.45094  0.80810  1.0000
  Cu  Cu11      1.0  0.14573  0.37509  0.80457  1.0000
  C   C331      1.0  0.54432  0.10638  0.25970  1.0000
  C   C332      1.0  0.53739  0.09111  0.27746  1.0000
  C   C333      1.0  0.55414  0.09471  0.29504  1.0000
  C   C334      1.0  0.57786  0.11358  0.29492  1.0000
  C   C335      1.0  0.58483  0.12891  0.27712  1.0000
  C   C336      1.0  0.56802  0.12527  0.25955  1.0000
  O   O109      1.0  0.52789  0.10286  0.24245  1.0000
  O   O110      1.0  0.51415  0.07260  0.27761  1.0000
  H   H127      1.0  0.54898  0.08338  0.30816  1.0000
  O   O111      1.0  0.59425  0.11704  0.31222  1.0000
  O   O112      1.0  0.60810  0.14749  0.27688  1.0000
  H   H128      1.0  0.57316  0.13657  0.24641  1.0000
  Cu  Cu12      1.0  0.62492  0.14545  0.30480  1.0000
  C   C337      1.0  0.90884  0.46258  0.72259  1.0000
  C   C338      1.0  0.89358  0.45567  0.74035  1.0000
  C   C339      1.0  0.87468  0.43199  0.74056  1.0000
  C   C340      1.0  0.87100  0.41516  0.72302  1.0000
  C   C341      1.0  0.88630  0.42206  0.70519  1.0000
  C   C342      1.0  0.90519  0.44577  0.70503  1.0000
  O   O113      1.0  0.92738  0.48581  0.72238  1.0000
  O   O114      1.0  0.89716  0.47215  0.75756  1.0000
  H   H129      1.0  0.86341  0.42692  0.75372  1.0000
  O   O115      1.0  0.85242  0.39191  0.72329  1.0000
  O   O116      1.0  0.88279  0.40562  0.68790  1.0000
  H   H130      1.0  0.91648  0.45088  0.69188  1.0000
  Cu  Cu13      1.0  0.85435  0.37499  0.69543  1.0000
  C   C343      1.0  0.54426  0.89359  0.24031  1.0000
  C   C344      1.0  0.53734  0.90887  0.22256  1.0000
  C   C345      1.0  0.55408  0.90526  0.20498  1.0000
  C   C346      1.0  0.57778  0.88637  0.20510  1.0000
  C   C347      1.0  0.58475  0.87103  0.22289  1.0000
  C   C348      1.0  0.56795  0.87469  0.24046  1.0000
  O   O117      1.0  0.52784  0.89712  0.25756  1.0000
  O   O118      1.0  0.51411  0.92740  0.22242  1.0000
  H   H131      1.0  0.54892  0.91659  0.19185  1.0000
  O   O119      1.0  0.59417  0.88290  0.18779  1.0000
  O   O120      1.0  0.60801  0.85243  0.22312  1.0000
  H   H132      1.0  0.57308  0.86337  0.25360  1.0000
  Cu  Cu14      1.0  0.62482  0.85447  0.19520  1.0000
  C   C349      1.0  0.10639  0.54433  0.74030  1.0000
  C   C350      1.0  0.09112  0.53740  0.72255  1.0000
  C   C351      1.0  0.09471  0.55415  0.70496  1.0000
  C   C352      1.0  0.11358  0.57786  0.70509  1.0000
  C   C353      1.0  0.12892  0.58483  0.72288  1.0000
  C   C354      1.0  0.12527  0.56803  0.74045  1.0000
  O   O121      1.0  0.10287  0.52790  0.75755  1.0000
  O   O122      1.0  0.07260  0.51416  0.72240  1.0000
  H   H133      1.0  0.08338  0.54898  0.69184  1.0000
  O   O123      1.0  0.11705  0.59426  0.68778  1.0000
  O   O124      1.0  0.14750  0.60810  0.72312  1.0000
  H   H134      1.0  0.13658  0.57316  0.75359  1.0000
  Cu  Cu15      1.0  0.14545  0.62492  0.69520  1.0000
  C   C355      1.0  0.46263  0.09118  0.22261  1.0000
  C   C356      1.0  0.45572  0.10645  0.24037  1.0000
  C   C357      1.0  0.43205  0.12536  0.24057  1.0000
  C   C358      1.0  0.41523  0.12905  0.22303  1.0000
  C   C359      1.0  0.42213  0.11375  0.20520  1.0000
  C   C360      1.0  0.44583  0.09484  0.20505  1.0000
  O   O125      1.0  0.48585  0.07262  0.22240  1.0000
  O   O126      1.0  0.47219  0.10286  0.25758  1.0000
  H   H135      1.0  0.42698  0.13664  0.25373  1.0000
  O   O127      1.0  0.39199  0.14766  0.22330  1.0000
  O   O128      1.0  0.40570  0.11726  0.18791  1.0000
  H   H136      1.0  0.45093  0.08354  0.19190  1.0000
  Cu  Cu16      1.0  0.37508  0.14573  0.19543  1.0000
  Cu  Cu17      1.0  0.23908  0.23908  0.99990  1.0000
  Cu  Cu18      1.0  0.76107  0.23893  0.50000  1.0000
  Cu  Cu19      1.0  0.76092  0.76092  0.00010  1.0000
  Cu  Cu20      1.0  0.23894  0.76106  0.50000  1.0000
