data_image0
_chemical_formula_structural       Fe8C26H7O2H2O2HC4HO2HC26H7O2H2O2HC4HO2HC26H7O2H2O2HC4HO2HC26H7O2H2O2HC4HO2HC26H7O2H2O2HC4HO2HC26H7O2H2O2HC4HO2HC26H7O2H2O2HC4HO2HC26H7O2H2O2HC4HO2HC6O2HO2HCuC6O2HO2HCuC6O2HO2HCuC6O2HO2HCuC6O2HO2HCuC6O2HO2HCuC6O2HO2HCuC6O2HO2HCuC6O2HO2HCuC6O2HO2HCuC6O2HO2HCuC6O2HO2HCuC6O2HO2HCuC6O2HO2HCuC6O2HO2HCuC6O2HO2HCu5C6HO2HO2C6HO2HO2C6HO2HO2C6HO2HO2
_chemical_formula_sum              "Fe8 C360 H136 O128 Cu20"
_cell_length_a       50.8153
_cell_length_b       50.8153
_cell_length_c       72.2562
_cell_angle_alpha    90.0024
_cell_angle_beta     89.9977
_cell_angle_gamma    90.0002

_space_group_name_H-M_alt    "P 1"
_space_group_IT_number       1

loop_
  _space_group_symop_operation_xyz
  'x, y, z'

loop_
  _atom_site_type_symbol
  _atom_site_label
  _atom_site_symmetry_multiplicity
  _atom_site_fract_x
  _atom_site_fract_y
  _atom_site_fract_z
  _atom_site_occupancy
  Fe  Fe1       1.0  0.17659  0.25003  0.25001  1.0000
  Fe  Fe2       1.0  0.25003  0.17659  0.74999  1.0000
  Fe  Fe3       1.0  0.32334  0.25004  0.25000  1.0000
  Fe  Fe4       1.0  0.25004  0.32334  0.75000  1.0000
  Fe  Fe5       1.0  0.82341  0.74997  0.74999  1.0000
  Fe  Fe6       1.0  0.74997  0.82341  0.25001  1.0000
  Fe  Fe7       1.0  0.67666  0.74996  0.75000  1.0000
  Fe  Fe8       1.0  0.74996  0.67666  0.25000  1.0000
  C   C1        1.0  0.47894  0.02185  0.12994  1.0000
  C   C2        1.0  0.49145  0.01293  0.14830  1.0000
  C   C3        1.0  0.51288  0.99150  0.14831  1.0000
  C   C4        1.0  0.52180  0.97899  0.12994  1.0000
  C   C5        1.0  0.50930  0.98791  0.11157  1.0000
  C   C6        1.0  0.48787  0.00934  0.11157  1.0000
  C   C7        1.0  0.54323  0.95756  0.12995  1.0000
  C   C8        1.0  0.55574  0.94864  0.14831  1.0000
  C   C9        1.0  0.54681  0.96115  0.16668  1.0000
  C   C10       1.0  0.52538  0.98258  0.16668  1.0000
  C   C11       1.0  0.45751  0.04328  0.12994  1.0000
  C   C12       1.0  0.44859  0.05579  0.14830  1.0000
  C   C13       1.0  0.46110  0.04687  0.16668  1.0000
  C   C14       1.0  0.48253  0.02544  0.16668  1.0000
  C   C15       1.0  0.47536  0.01826  0.09319  1.0000
  C   C16       1.0  0.48429  0.00575  0.07483  1.0000
  C   C17       1.0  0.50572  0.98432  0.07483  1.0000
  C   C18       1.0  0.51822  0.97540  0.09319  1.0000
  C   C19       1.0  0.51464  0.97181  0.05646  1.0000
  C   C20       1.0  0.50213  0.98073  0.03808  1.0000
  C   C21       1.0  0.48070  0.00216  0.03808  1.0000
  C   C22       1.0  0.47178  0.01467  0.05645  1.0000
  C   C23       1.0  0.55932  0.95223  0.18506  1.0000
  C   C24       1.0  0.58075  0.93080  0.18506  1.0000
  C   C25       1.0  0.58967  0.91829  0.16669  1.0000
  C   C26       1.0  0.57717  0.92721  0.14831  1.0000
  H   H1        1.0  0.54984  0.94830  0.11634  1.0000
  H   H2        1.0  0.51878  0.99184  0.18028  1.0000
  H   H3        1.0  0.44826  0.04988  0.11633  1.0000
  H   H4        1.0  0.49178  0.01884  0.18028  1.0000
  H   H5        1.0  0.45950  0.03412  0.09319  1.0000
  H   H6        1.0  0.53408  0.95954  0.09319  1.0000
  H   H7        1.0  0.53050  0.95595  0.05646  1.0000
  O   O1        1.0  0.51082  0.96854  0.02019  1.0000
  O   O2        1.0  0.46852  0.01085  0.02018  1.0000
  H   H8        1.0  0.45592  0.03053  0.05645  1.0000
  H   H9        1.0  0.55271  0.96149  0.19865  1.0000
  O   O3        1.0  0.59293  0.92211  0.20295  1.0000
  O   O4        1.0  0.61054  0.89742  0.16669  1.0000
  H   H10       1.0  0.58377  0.91795  0.13471  1.0000
  C   C27       1.0  0.45217  0.05938  0.18505  1.0000
  C   C28       1.0  0.43074  0.08081  0.18505  1.0000
  C   C29       1.0  0.41824  0.08973  0.16668  1.0000
  C   C30       1.0  0.42716  0.07722  0.14830  1.0000
  H   H11       1.0  0.46143  0.05278  0.19865  1.0000
  O   O5        1.0  0.42205  0.09299  0.20294  1.0000
  O   O6        1.0  0.39737  0.11060  0.16667  1.0000
  H   H12       1.0  0.41790  0.08382  0.13470  1.0000
  C   C31       1.0  0.50865  0.51280  0.64831  1.0000
  C   C32       1.0  0.52114  0.52172  0.62995  1.0000
  C   C33       1.0  0.51221  0.50922  0.61157  1.0000
  C   C34       1.0  0.49079  0.48780  0.61157  1.0000
  C   C35       1.0  0.47828  0.47886  0.62994  1.0000
  C   C36       1.0  0.48721  0.49137  0.64831  1.0000
  C   C37       1.0  0.48186  0.47530  0.59320  1.0000
  C   C38       1.0  0.49435  0.48422  0.57483  1.0000
  C   C39       1.0  0.51579  0.50565  0.57483  1.0000
  C   C40       1.0  0.52471  0.51815  0.59320  1.0000
  C   C41       1.0  0.51757  0.52530  0.66668  1.0000
  C   C42       1.0  0.53900  0.54672  0.66669  1.0000
  C   C43       1.0  0.55150  0.55565  0.64831  1.0000
  C   C44       1.0  0.54257  0.54315  0.62994  1.0000
  C   C45       1.0  0.47471  0.48243  0.66669  1.0000
  C   C46       1.0  0.45329  0.46101  0.66668  1.0000
  C   C47       1.0  0.44436  0.44851  0.64831  1.0000
  C   C48       1.0  0.45685  0.45743  0.62994  1.0000
  C   C49       1.0  0.42292  0.42708  0.64831  1.0000
  C   C50       1.0  0.41042  0.41814  0.66669  1.0000
  C   C51       1.0  0.41935  0.43065  0.68506  1.0000
  C   C52       1.0  0.44078  0.45208  0.68506  1.0000
  C   C53       1.0  0.52829  0.51458  0.55645  1.0000
  C   C54       1.0  0.51936  0.50208  0.53808  1.0000
  C   C55       1.0  0.49793  0.48065  0.53808  1.0000
  C   C56       1.0  0.48542  0.47171  0.55646  1.0000
  H   H13       1.0  0.46599  0.45942  0.59320  1.0000
  H   H14       1.0  0.54057  0.53401  0.59320  1.0000
  H   H15       1.0  0.50831  0.51868  0.68029  1.0000
  H   H16       1.0  0.55182  0.54976  0.61634  1.0000
  H   H17       1.0  0.48132  0.49169  0.68029  1.0000
  H   H18       1.0  0.45024  0.44818  0.61634  1.0000
  H   H19       1.0  0.41631  0.41782  0.63471  1.0000
  O   O7        1.0  0.38955  0.39727  0.66669  1.0000
  O   O8        1.0  0.40717  0.42195  0.70296  1.0000
  H   H20       1.0  0.44739  0.46133  0.69866  1.0000
  H   H21       1.0  0.54415  0.53044  0.55645  1.0000
  O   O9        1.0  0.53154  0.51078  0.52019  1.0000
  O   O10       1.0  0.48923  0.46847  0.52019  1.0000
  H   H22       1.0  0.46956  0.45585  0.55646  1.0000
  C   C57       1.0  0.57293  0.57709  0.64831  1.0000
  C   C58       1.0  0.58186  0.58959  0.66668  1.0000
  C   C59       1.0  0.56936  0.58066  0.68506  1.0000
  C   C60       1.0  0.54792  0.55922  0.68506  1.0000
  H   H23       1.0  0.58218  0.58369  0.63471  1.0000
  O   O11       1.0  0.60273  0.61046  0.66668  1.0000
  O   O12       1.0  0.57805  0.59283  0.70295  1.0000
  H   H24       1.0  0.53867  0.55262  0.69866  1.0000
  C   C61       1.0  0.00851  0.48711  0.14831  1.0000
  C   C62       1.0  0.02101  0.47819  0.12994  1.0000
  C   C63       1.0  0.01209  0.49070  0.11157  1.0000
  C   C64       1.0  0.99067  0.51212  0.11157  1.0000
  C   C65       1.0  0.97816  0.52105  0.12994  1.0000
  C   C66       1.0  0.98707  0.50854  0.14831  1.0000
  C   C67       1.0  0.98175  0.52463  0.09319  1.0000
  C   C68       1.0  0.99425  0.51571  0.07483  1.0000
  C   C69       1.0  0.01569  0.49428  0.07483  1.0000
  C   C70       1.0  0.02461  0.48177  0.09320  1.0000
  C   C71       1.0  0.01743  0.47460  0.16668  1.0000
  C   C72       1.0  0.03885  0.45318  0.16669  1.0000
  C   C73       1.0  0.05136  0.44426  0.14831  1.0000
  C   C74       1.0  0.04244  0.45676  0.12994  1.0000
  C   C75       1.0  0.97456  0.51747  0.16668  1.0000
  C   C76       1.0  0.95314  0.53889  0.16668  1.0000
  C   C77       1.0  0.94422  0.55140  0.14831  1.0000
  C   C78       1.0  0.95672  0.54248  0.12994  1.0000
  C   C79       1.0  0.92279  0.57283  0.14831  1.0000
  C   C80       1.0  0.91027  0.58176  0.16668  1.0000
  C   C81       1.0  0.91919  0.56925  0.18505  1.0000
  C   C82       1.0  0.94063  0.54782  0.18505  1.0000
  C   C83       1.0  0.02820  0.48535  0.05645  1.0000
  C   C84       1.0  0.01928  0.49786  0.03808  1.0000
  C   C85       1.0  0.99785  0.51929  0.03808  1.0000
  C   C86       1.0  0.98533  0.52822  0.05646  1.0000
  H   H25       1.0  0.96588  0.54050  0.09320  1.0000
  H   H26       1.0  0.04047  0.46591  0.09320  1.0000
  H   H27       1.0  0.00816  0.48122  0.18029  1.0000
  H   H28       1.0  0.05170  0.45016  0.11635  1.0000
  H   H29       1.0  0.98116  0.50821  0.18028  1.0000
  H   H30       1.0  0.95012  0.55174  0.11634  1.0000
  H   H31       1.0  0.91618  0.58209  0.13471  1.0000
  O   O13       1.0  0.88940  0.60263  0.16668  1.0000
  O   O14       1.0  0.90701  0.57794  0.20294  1.0000
  H   H32       1.0  0.94723  0.53856  0.19865  1.0000
  H   H33       1.0  0.04406  0.46949  0.05646  1.0000
  O   O15       1.0  0.03147  0.48917  0.02019  1.0000
  O   O16       1.0  0.98916  0.53147  0.02019  1.0000
  H   H34       1.0  0.96947  0.54408  0.05645  1.0000
  C   C87       1.0  0.07280  0.42282  0.14831  1.0000
  C   C88       1.0  0.08172  0.41032  0.16669  1.0000
  C   C89       1.0  0.06920  0.41924  0.18506  1.0000
  C   C90       1.0  0.04777  0.44068  0.18506  1.0000
  H   H35       1.0  0.08205  0.41622  0.13472  1.0000
  O   O17       1.0  0.10259  0.38944  0.16669  1.0000
  O   O18       1.0  0.07789  0.40706  0.20295  1.0000
  H   H36       1.0  0.03851  0.44728  0.19866  1.0000
  C   C91       1.0  0.97895  0.97819  0.62994  1.0000
  C   C92       1.0  0.99146  0.98711  0.64830  1.0000
  C   C93       1.0  0.01289  0.00854  0.64830  1.0000
  C   C94       1.0  0.02181  0.02105  0.62994  1.0000
  C   C95       1.0  0.00930  0.01213  0.61157  1.0000
  C   C96       1.0  0.98787  0.99070  0.61157  1.0000
  C   C97       1.0  0.04324  0.04248  0.62994  1.0000
  C   C98       1.0  0.05574  0.05140  0.64830  1.0000
  C   C99       1.0  0.04682  0.03889  0.66668  1.0000
  C   C100      1.0  0.02539  0.01746  0.66668  1.0000
  C   C101      1.0  0.95752  0.95676  0.62994  1.0000
  C   C102      1.0  0.94860  0.94425  0.64830  1.0000
  C   C103      1.0  0.96111  0.95317  0.66668  1.0000
  C   C104      1.0  0.98254  0.97460  0.66668  1.0000
  C   C105      1.0  0.97536  0.98178  0.59319  1.0000
  C   C106      1.0  0.98428  0.99428  0.57483  1.0000
  C   C107      1.0  0.00571  0.01571  0.57483  1.0000
  C   C108      1.0  0.01822  0.02463  0.59319  1.0000
  C   C109      1.0  0.01463  0.02822  0.55645  1.0000
  C   C110      1.0  0.00212  0.01930  0.53808  1.0000
  C   C111      1.0  0.98069  0.99787  0.53808  1.0000
  C   C112      1.0  0.97177  0.98536  0.55645  1.0000
  C   C113      1.0  0.05933  0.04781  0.68505  1.0000
  C   C114      1.0  0.08076  0.06924  0.68505  1.0000
  C   C115      1.0  0.08968  0.08175  0.66668  1.0000
  C   C116      1.0  0.07717  0.07283  0.64830  1.0000
  H   H37       1.0  0.04984  0.05174  0.61633  1.0000
  H   H38       1.0  0.01879  0.00820  0.68027  1.0000
  H   H39       1.0  0.94826  0.95015  0.61633  1.0000
  H   H40       1.0  0.99179  0.98120  0.68027  1.0000
  H   H41       1.0  0.95950  0.96591  0.59319  1.0000
  H   H42       1.0  0.03408  0.04050  0.59319  1.0000
  H   H43       1.0  0.03049  0.04409  0.55645  1.0000
  O   O19       1.0  0.01081  0.03149  0.52018  1.0000
  O   O20       1.0  0.96851  0.98918  0.52018  1.0000
  H   H44       1.0  0.95591  0.96950  0.55645  1.0000
  H   H45       1.0  0.05273  0.03855  0.69865  1.0000
  O   O21       1.0  0.09295  0.07793  0.70295  1.0000
  O   O22       1.0  0.11056  0.10262  0.66668  1.0000
  H   H46       1.0  0.08378  0.08209  0.63471  1.0000
  C   C117      1.0  0.95219  0.94066  0.68505  1.0000
  C   C118      1.0  0.93076  0.91923  0.68505  1.0000
  C   C119      1.0  0.91825  0.91031  0.66668  1.0000
  C   C120      1.0  0.92717  0.92282  0.64830  1.0000
  H   H47       1.0  0.96145  0.94727  0.69865  1.0000
  O   O23       1.0  0.92207  0.90705  0.70295  1.0000
  O   O24       1.0  0.89737  0.88944  0.66668  1.0000
  H   H48       1.0  0.91791  0.91622  0.63471  1.0000
  C   C121      1.0  0.47886  0.47828  0.37005  1.0000
  C   C122      1.0  0.49136  0.48721  0.35169  1.0000
  C   C123      1.0  0.51279  0.50864  0.35169  1.0000
  C   C124      1.0  0.52172  0.52114  0.37005  1.0000
  C   C125      1.0  0.50922  0.51221  0.38843  1.0000
  C   C126      1.0  0.48779  0.49078  0.38843  1.0000
  C   C127      1.0  0.54315  0.54256  0.37005  1.0000
  C   C128      1.0  0.55565  0.55149  0.35169  1.0000
  C   C129      1.0  0.54672  0.53899  0.33331  1.0000
  C   C130      1.0  0.52529  0.51756  0.33331  1.0000
  C   C131      1.0  0.45743  0.45685  0.37005  1.0000
  C   C132      1.0  0.44850  0.44435  0.35169  1.0000
  C   C133      1.0  0.46100  0.45327  0.33331  1.0000
  C   C134      1.0  0.48243  0.47470  0.33331  1.0000
  C   C135      1.0  0.47528  0.48185  0.40681  1.0000
  C   C136      1.0  0.48421  0.49435  0.42517  1.0000
  C   C137      1.0  0.50564  0.51578  0.42517  1.0000
  C   C138      1.0  0.51814  0.52471  0.40681  1.0000
  C   C139      1.0  0.51457  0.52828  0.44355  1.0000
  C   C140      1.0  0.50207  0.51935  0.46192  1.0000
  C   C141      1.0  0.48064  0.49792  0.46192  1.0000
  C   C142      1.0  0.47171  0.48542  0.44355  1.0000
  C   C143      1.0  0.55922  0.54792  0.31494  1.0000
  C   C144      1.0  0.58065  0.56935  0.31494  1.0000
  C   C145      1.0  0.58958  0.58185  0.33331  1.0000
  C   C146      1.0  0.57708  0.57292  0.35169  1.0000
  H   H49       1.0  0.54975  0.55182  0.38366  1.0000
  H   H50       1.0  0.51868  0.50831  0.31972  1.0000
  H   H51       1.0  0.44817  0.45024  0.38366  1.0000
  H   H52       1.0  0.49168  0.48131  0.31972  1.0000
  H   H53       1.0  0.45942  0.46599  0.40681  1.0000
  H   H54       1.0  0.53401  0.54057  0.40681  1.0000
  H   H55       1.0  0.53043  0.54414  0.44355  1.0000
  O   O25       1.0  0.51077  0.53153  0.47982  1.0000
  O   O26       1.0  0.46846  0.48923  0.47982  1.0000
  H   H56       1.0  0.45585  0.46956  0.44355  1.0000
  H   H57       1.0  0.55261  0.53867  0.30134  1.0000
  O   O27       1.0  0.59283  0.57805  0.29704  1.0000
  O   O28       1.0  0.61045  0.60272  0.33331  1.0000
  H   H58       1.0  0.58369  0.58218  0.36529  1.0000
  C   C147      1.0  0.45207  0.44077  0.31494  1.0000
  C   C148      1.0  0.43064  0.41934  0.31494  1.0000
  C   C149      1.0  0.41814  0.41042  0.33331  1.0000
  C   C150      1.0  0.42707  0.42292  0.35169  1.0000
  H   H59       1.0  0.46133  0.44738  0.30134  1.0000
  O   O29       1.0  0.42195  0.40717  0.29704  1.0000
  O   O30       1.0  0.39727  0.38954  0.33331  1.0000
  H   H60       1.0  0.41782  0.41631  0.36529  1.0000
  C   C151      1.0  0.97899  0.52181  0.87005  1.0000
  C   C152      1.0  0.99149  0.51289  0.85169  1.0000
  C   C153      1.0  0.01292  0.49146  0.85169  1.0000
  C   C154      1.0  0.02184  0.47895  0.87006  1.0000
  C   C155      1.0  0.00933  0.48787  0.88843  1.0000
  C   C156      1.0  0.98790  0.50930  0.88843  1.0000
  C   C157      1.0  0.04327  0.45752  0.87006  1.0000
  C   C158      1.0  0.05578  0.44860  0.85170  1.0000
  C   C159      1.0  0.04686  0.46110  0.83332  1.0000
  C   C160      1.0  0.02544  0.48253  0.83332  1.0000
  C   C161      1.0  0.95756  0.54324  0.87005  1.0000
  C   C162      1.0  0.94864  0.55574  0.85169  1.0000
  C   C163      1.0  0.96115  0.54682  0.83332  1.0000
  C   C164      1.0  0.98258  0.52539  0.83332  1.0000
  C   C165      1.0  0.97539  0.51823  0.90681  1.0000
  C   C166      1.0  0.98431  0.50572  0.92517  1.0000
  C   C167      1.0  0.00574  0.48429  0.92517  1.0000
  C   C168      1.0  0.01825  0.47537  0.90681  1.0000
  C   C169      1.0  0.01466  0.47179  0.94355  1.0000
  C   C170      1.0  0.00215  0.48071  0.96192  1.0000
  C   C171      1.0  0.98072  0.50214  0.96192  1.0000
  C   C172      1.0  0.97180  0.51465  0.94354  1.0000
  C   C173      1.0  0.05938  0.45218  0.81495  1.0000
  C   C174      1.0  0.08081  0.43075  0.81495  1.0000
  C   C175      1.0  0.08972  0.41825  0.83332  1.0000
  C   C176      1.0  0.07721  0.42717  0.85170  1.0000
  H   H61       1.0  0.04988  0.44826  0.88367  1.0000
  H   H62       1.0  0.01883  0.49179  0.81972  1.0000
  H   H63       1.0  0.94829  0.54984  0.88366  1.0000
  H   H64       1.0  0.99184  0.51879  0.81972  1.0000
  H   H65       1.0  0.95953  0.53409  0.90680  1.0000
  H   H66       1.0  0.03412  0.45951  0.90681  1.0000
  H   H67       1.0  0.03053  0.45592  0.94355  1.0000
  O   O31       1.0  0.01084  0.46853  0.97982  1.0000
  O   O32       1.0  0.96854  0.51083  0.97981  1.0000
  H   H68       1.0  0.95594  0.53051  0.94354  1.0000
  H   H69       1.0  0.05277  0.46144  0.80135  1.0000
  O   O33       1.0  0.09299  0.42206  0.79705  1.0000
  O   O34       1.0  0.11060  0.39737  0.83332  1.0000
  H   H70       1.0  0.08382  0.41791  0.86529  1.0000
  C   C177      1.0  0.95223  0.55933  0.81494  1.0000
  C   C178      1.0  0.93080  0.58076  0.81494  1.0000
  C   C179      1.0  0.91829  0.58968  0.83331  1.0000
  C   C180      1.0  0.92721  0.57717  0.85169  1.0000
  H   H71       1.0  0.96149  0.55272  0.80134  1.0000
  O   O35       1.0  0.92211  0.59294  0.79704  1.0000
  O   O36       1.0  0.89741  0.61055  0.83331  1.0000
  H   H72       1.0  0.91795  0.58378  0.86528  1.0000
  C   C181      1.0  0.00855  0.01289  0.35169  1.0000
  C   C182      1.0  0.02105  0.02181  0.37006  1.0000
  C   C183      1.0  0.01213  0.00930  0.38843  1.0000
  C   C184      1.0  0.99071  0.98788  0.38844  1.0000
  C   C185      1.0  0.97819  0.97895  0.37006  1.0000
  C   C186      1.0  0.98711  0.99146  0.35169  1.0000
  C   C187      1.0  0.98179  0.97537  0.40681  1.0000
  C   C188      1.0  0.99429  0.98428  0.42517  1.0000
  C   C189      1.0  0.01572  0.00572  0.42518  1.0000
  C   C190      1.0  0.02464  0.01822  0.40680  1.0000
  C   C191      1.0  0.01747  0.02540  0.33332  1.0000
  C   C192      1.0  0.03889  0.04683  0.33332  1.0000
  C   C193      1.0  0.05140  0.05575  0.35169  1.0000
  C   C194      1.0  0.04248  0.04324  0.37006  1.0000
  C   C195      1.0  0.97460  0.98254  0.33332  1.0000
  C   C196      1.0  0.95318  0.96112  0.33332  1.0000
  C   C197      1.0  0.94426  0.94861  0.35169  1.0000
  C   C198      1.0  0.95676  0.95752  0.37006  1.0000
  C   C199      1.0  0.92283  0.92717  0.35169  1.0000
  C   C200      1.0  0.91031  0.91825  0.33332  1.0000
  C   C201      1.0  0.91923  0.93076  0.31495  1.0000
  C   C202      1.0  0.94067  0.95219  0.31495  1.0000
  C   C203      1.0  0.02823  0.01464  0.44355  1.0000
  C   C204      1.0  0.01931  0.00213  0.46192  1.0000
  C   C205      1.0  0.99788  0.98070  0.46192  1.0000
  C   C206      1.0  0.98536  0.97177  0.44354  1.0000
  H   H73       1.0  0.96591  0.95950  0.40680  1.0000
  H   H74       1.0  0.04050  0.03408  0.40680  1.0000
  H   H75       1.0  0.00820  0.01879  0.31972  1.0000
  H   H76       1.0  0.05174  0.04984  0.38366  1.0000
  H   H77       1.0  0.98120  0.99180  0.31972  1.0000
  H   H78       1.0  0.95016  0.94826  0.38366  1.0000
  H   H79       1.0  0.91622  0.91791  0.36529  1.0000
  O   O37       1.0  0.88944  0.89738  0.33332  1.0000
  O   O38       1.0  0.90705  0.92207  0.29705  1.0000
  H   H80       1.0  0.94727  0.96145  0.30135  1.0000
  H   H81       1.0  0.04409  0.03050  0.44355  1.0000
  O   O39       1.0  0.03149  0.01082  0.47981  1.0000
  O   O40       1.0  0.98919  0.96851  0.47981  1.0000
  H   H82       1.0  0.96950  0.95591  0.44355  1.0000
  C   C207      1.0  0.07284  0.07718  0.35169  1.0000
  C   C208      1.0  0.08176  0.08969  0.33332  1.0000
  C   C209      1.0  0.06924  0.08077  0.31495  1.0000
  C   C210      1.0  0.04781  0.05933  0.31495  1.0000
  H   H83       1.0  0.08209  0.08378  0.36529  1.0000
  O   O41       1.0  0.10263  0.11056  0.33332  1.0000
  O   O42       1.0  0.07793  0.09295  0.29706  1.0000
  H   H84       1.0  0.03855  0.05273  0.30135  1.0000
  C   C211      1.0  0.50855  0.98707  0.85169  1.0000
  C   C212      1.0  0.52105  0.97815  0.87006  1.0000
  C   C213      1.0  0.51213  0.99067  0.88843  1.0000
  C   C214      1.0  0.49071  0.01209  0.88843  1.0000
  C   C215      1.0  0.47820  0.02101  0.87006  1.0000
  C   C216      1.0  0.48712  0.00850  0.85169  1.0000
  C   C217      1.0  0.48178  0.02460  0.90680  1.0000
  C   C218      1.0  0.49428  0.01569  0.92517  1.0000
  C   C219      1.0  0.51571  0.99425  0.92518  1.0000
  C   C220      1.0  0.52464  0.98174  0.90680  1.0000
  C   C221      1.0  0.51748  0.97456  0.83332  1.0000
  C   C222      1.0  0.53890  0.95313  0.83332  1.0000
  C   C223      1.0  0.55141  0.94421  0.85169  1.0000
  C   C224      1.0  0.54248  0.95672  0.87006  1.0000
  C   C225      1.0  0.47461  0.01742  0.83332  1.0000
  C   C226      1.0  0.45319  0.03884  0.83332  1.0000
  C   C227      1.0  0.44427  0.05135  0.85169  1.0000
  C   C228      1.0  0.45676  0.04244  0.87006  1.0000
  C   C229      1.0  0.42283  0.07279  0.85169  1.0000
  C   C230      1.0  0.41032  0.08171  0.83331  1.0000
  C   C231      1.0  0.41925  0.06920  0.81494  1.0000
  C   C232      1.0  0.44068  0.04777  0.81494  1.0000
  C   C233      1.0  0.52822  0.98533  0.94355  1.0000
  C   C234      1.0  0.51930  0.99784  0.96192  1.0000
  C   C235      1.0  0.49787  0.01927  0.96192  1.0000
  C   C236      1.0  0.48536  0.02820  0.94354  1.0000
  H   H85       1.0  0.46591  0.04047  0.90680  1.0000
  H   H86       1.0  0.54050  0.96588  0.90680  1.0000
  H   H87       1.0  0.50821  0.98117  0.81972  1.0000
  H   H88       1.0  0.55174  0.95012  0.88366  1.0000
  H   H89       1.0  0.48122  0.00816  0.81972  1.0000
  H   H90       1.0  0.45016  0.05170  0.88366  1.0000
  H   H91       1.0  0.41623  0.08205  0.86528  1.0000
  O   O43       1.0  0.38945  0.10258  0.83331  1.0000
  O   O44       1.0  0.40707  0.07789  0.79705  1.0000
  H   H92       1.0  0.44729  0.03851  0.80135  1.0000
  H   H93       1.0  0.54408  0.96947  0.94355  1.0000
  O   O45       1.0  0.53148  0.98915  0.97981  1.0000
  O   O46       1.0  0.48917  0.03146  0.97981  1.0000
  H   H94       1.0  0.46950  0.04406  0.94354  1.0000
  C   C237      1.0  0.57284  0.92278  0.85170  1.0000
  C   C238      1.0  0.58177  0.91027  0.83333  1.0000
  C   C239      1.0  0.56926  0.91919  0.81495  1.0000
  C   C240      1.0  0.54782  0.94062  0.81495  1.0000
  H   H95       1.0  0.58210  0.91618  0.86529  1.0000
  O   O47       1.0  0.60264  0.88940  0.83333  1.0000
  O   O48       1.0  0.57795  0.90701  0.79706  1.0000
  H   H96       1.0  0.53857  0.94722  0.80135  1.0000
  C   C241      1.0  0.15853  0.21280  0.27744  1.0000
  C   C242      1.0  0.14329  0.20587  0.25970  1.0000
  C   C243      1.0  0.12430  0.18227  0.25952  1.0000
  C   C244      1.0  0.12051  0.16555  0.27709  1.0000
  C   C245      1.0  0.13579  0.17247  0.29490  1.0000
  C   C246      1.0  0.15477  0.19610  0.29502  1.0000
  O   O49       1.0  0.17716  0.23595  0.27762  1.0000
  O   O50       1.0  0.14697  0.22224  0.24246  1.0000
  H   H97       1.0  0.11304  0.17718  0.24637  1.0000
  O   O51       1.0  0.10184  0.14238  0.27684  1.0000
  O   O52       1.0  0.13218  0.15614  0.31221  1.0000
  H   H98       1.0  0.16606  0.20123  0.30816  1.0000
  Cu  Cu1       1.0  0.10364  0.12560  0.30473  1.0000
  C   C247      1.0  0.28725  0.15853  0.77742  1.0000
  C   C248      1.0  0.29418  0.14328  0.75968  1.0000
  C   C249      1.0  0.31777  0.12428  0.75950  1.0000
  C   C250      1.0  0.33449  0.12049  0.77707  1.0000
  C   C251      1.0  0.32757  0.13577  0.79488  1.0000
  C   C252      1.0  0.30395  0.15476  0.79500  1.0000
  O   O53       1.0  0.26411  0.17716  0.77759  1.0000
  O   O54       1.0  0.27782  0.14697  0.74244  1.0000
  H   H99       1.0  0.32286  0.11302  0.74635  1.0000
  O   O55       1.0  0.35765  0.10181  0.77683  1.0000
  O   O56       1.0  0.34389  0.13216  0.81220  1.0000
  H   H100      1.0  0.29882  0.16605  0.80814  1.0000
  Cu  Cu2       1.0  0.37443  0.10361  0.80472  1.0000
  C   C253      1.0  0.35661  0.29420  0.25974  1.0000
  C   C254      1.0  0.34135  0.28726  0.27747  1.0000
  C   C255      1.0  0.34504  0.30390  0.29508  1.0000
  C   C256      1.0  0.36399  0.32754  0.29499  1.0000
  C   C257      1.0  0.37931  0.33453  0.27721  1.0000
  C   C258      1.0  0.37557  0.31783  0.25962  1.0000
  O   O57       1.0  0.35299  0.27787  0.24246  1.0000
  O   O58       1.0  0.32275  0.26409  0.27759  1.0000
  H   H101      1.0  0.33372  0.29872  0.30819  1.0000
  O   O59       1.0  0.36755  0.34383  0.31232  1.0000
  O   O60       1.0  0.39798  0.35772  0.27701  1.0000
  H   H102      1.0  0.38687  0.32298  0.24649  1.0000
  Cu  Cu3       1.0  0.39605  0.37441  0.30495  1.0000
  C   C259      1.0  0.20590  0.35663  0.75974  1.0000
  C   C260      1.0  0.21284  0.34137  0.77748  1.0000
  C   C261      1.0  0.19620  0.34507  0.79509  1.0000
  C   C262      1.0  0.17258  0.36405  0.79500  1.0000
  C   C263      1.0  0.16559  0.37937  0.77722  1.0000
  C   C264      1.0  0.18228  0.37561  0.75963  1.0000
  O   O61       1.0  0.22222  0.35299  0.74247  1.0000
  O   O62       1.0  0.23599  0.32276  0.77760  1.0000
  H   H103      1.0  0.20138  0.33376  0.80820  1.0000
  O   O63       1.0  0.15629  0.36762  0.81233  1.0000
  O   O64       1.0  0.14241  0.39804  0.77702  1.0000
  H   H104      1.0  0.17714  0.38690  0.74650  1.0000
  Cu  Cu4       1.0  0.12572  0.39614  0.80496  1.0000
  C   C265      1.0  0.14331  0.29417  0.24027  1.0000
  C   C266      1.0  0.15857  0.28722  0.22253  1.0000
  C   C267      1.0  0.15487  0.30386  0.20493  1.0000
  C   C268      1.0  0.13590  0.32748  0.20501  1.0000
  C   C269      1.0  0.12058  0.33448  0.22279  1.0000
  C   C270      1.0  0.12433  0.31778  0.24039  1.0000
  O   O65       1.0  0.14695  0.27785  0.25755  1.0000
  O   O66       1.0  0.17718  0.26407  0.22242  1.0000
  H   H105      1.0  0.16619  0.29868  0.19182  1.0000
  O   O67       1.0  0.13232  0.34377  0.18768  1.0000
  O   O68       1.0  0.10190  0.35766  0.22299  1.0000
  H   H106      1.0  0.11303  0.32293  0.25351  1.0000
  Cu  Cu5       1.0  0.10381  0.37434  0.19505  1.0000
  C   C271      1.0  0.20588  0.14332  0.74025  1.0000
  C   C272      1.0  0.21283  0.15858  0.72251  1.0000
  C   C273      1.0  0.19619  0.15488  0.70491  1.0000
  C   C274      1.0  0.17255  0.13592  0.70499  1.0000
  C   C275      1.0  0.16556  0.12060  0.72278  1.0000
  C   C276      1.0  0.18226  0.12435  0.74037  1.0000
  O   O69       1.0  0.22221  0.14695  0.75752  1.0000
  O   O70       1.0  0.23599  0.17718  0.72240  1.0000
  H   H107      1.0  0.20137  0.16619  0.69179  1.0000
  O   O71       1.0  0.15626  0.13235  0.68767  1.0000
  O   O72       1.0  0.14238  0.10193  0.72298  1.0000
  H   H108      1.0  0.17711  0.11306  0.75350  1.0000
  Cu  Cu6       1.0  0.12569  0.10384  0.69504  1.0000
  C   C277      1.0  0.34141  0.21281  0.22256  1.0000
  C   C278      1.0  0.35666  0.20589  0.24031  1.0000
  C   C279      1.0  0.37566  0.18230  0.24048  1.0000
  C   C280      1.0  0.37945  0.16557  0.22292  1.0000
  C   C281      1.0  0.36417  0.17250  0.20511  1.0000
  C   C282      1.0  0.34518  0.19611  0.20498  1.0000
  O   O73       1.0  0.32278  0.23596  0.22239  1.0000
  O   O74       1.0  0.35297  0.22226  0.25755  1.0000
  H   H109      1.0  0.38692  0.17721  0.25363  1.0000
  O   O75       1.0  0.39813  0.14242  0.22316  1.0000
  O   O76       1.0  0.36779  0.15616  0.18779  1.0000
  H   H110      1.0  0.33389  0.20124  0.19184  1.0000
  Cu  Cu7       1.0  0.39634  0.12563  0.19527  1.0000
  C   C283      1.0  0.28728  0.34140  0.72257  1.0000
  C   C284      1.0  0.29422  0.35664  0.74032  1.0000
  C   C285      1.0  0.31782  0.37562  0.74049  1.0000
  C   C286      1.0  0.33455  0.37940  0.72293  1.0000
  C   C287      1.0  0.32762  0.36412  0.70512  1.0000
  C   C288      1.0  0.30399  0.34514  0.70499  1.0000
  O   O77       1.0  0.26413  0.32278  0.72240  1.0000
  O   O78       1.0  0.27784  0.35297  0.75755  1.0000
  H   H111      1.0  0.32291  0.38689  0.75364  1.0000
  O   O79       1.0  0.35772  0.39807  0.72317  1.0000
  O   O80       1.0  0.34396  0.36772  0.68780  1.0000
  H   H112      1.0  0.29886  0.33386  0.69185  1.0000
  Cu  Cu8       1.0  0.37451  0.39625  0.69528  1.0000
  C   C289      1.0  0.85668  0.79412  0.74025  1.0000
  C   C290      1.0  0.84142  0.78717  0.72251  1.0000
  C   C291      1.0  0.84512  0.80381  0.70491  1.0000
  C   C292      1.0  0.86408  0.82745  0.70500  1.0000
  C   C293      1.0  0.87940  0.83444  0.72278  1.0000
  C   C294      1.0  0.87565  0.81774  0.74037  1.0000
  O   O81       1.0  0.85305  0.77779  0.75752  1.0000
  O   O82       1.0  0.82282  0.76401  0.72240  1.0000
  H   H113      1.0  0.83381  0.79863  0.69179  1.0000
  O   O83       1.0  0.86765  0.84374  0.68767  1.0000
  O   O84       1.0  0.89807  0.85763  0.72298  1.0000
  H   H114      1.0  0.88694  0.82289  0.75350  1.0000
  Cu  Cu9       1.0  0.89616  0.87431  0.69504  1.0000
  C   C295      1.0  0.70583  0.85669  0.24027  1.0000
  C   C296      1.0  0.71277  0.84143  0.22253  1.0000
  C   C297      1.0  0.69614  0.84513  0.20493  1.0000
  C   C298      1.0  0.67251  0.86410  0.20501  1.0000
  C   C299      1.0  0.66552  0.87942  0.22279  1.0000
  C   C300      1.0  0.68221  0.87567  0.24039  1.0000
  O   O85       1.0  0.72215  0.85305  0.25755  1.0000
  O   O86       1.0  0.73593  0.82282  0.22242  1.0000
  H   H115      1.0  0.70132  0.83381  0.19182  1.0000
  O   O87       1.0  0.65623  0.86768  0.18768  1.0000
  O   O88       1.0  0.64234  0.89810  0.22299  1.0000
  H   H116      1.0  0.67707  0.88697  0.25351  1.0000
  Cu  Cu10      1.0  0.62566  0.89619  0.19505  1.0000
  C   C301      1.0  0.65861  0.71272  0.72257  1.0000
  C   C302      1.0  0.64336  0.70578  0.74032  1.0000
  C   C303      1.0  0.62438  0.68218  0.74049  1.0000
  C   C304      1.0  0.62060  0.66545  0.72293  1.0000
  C   C305      1.0  0.63588  0.67238  0.70512  1.0000
  C   C306      1.0  0.65486  0.69601  0.70499  1.0000
  O   O89       1.0  0.67723  0.73587  0.72240  1.0000
  O   O90       1.0  0.64703  0.72216  0.75755  1.0000
  H   H117      1.0  0.61311  0.67709  0.75364  1.0000
  O   O91       1.0  0.60193  0.64228  0.72317  1.0000
  O   O92       1.0  0.63228  0.65604  0.68780  1.0000
  H   H118      1.0  0.66614  0.70114  0.69185  1.0000
  Cu  Cu11      1.0  0.60375  0.62549  0.69528  1.0000
  C   C307      1.0  0.78719  0.65859  0.22256  1.0000
  C   C308      1.0  0.79411  0.64334  0.24031  1.0000
  C   C309      1.0  0.81770  0.62434  0.24048  1.0000
  C   C310      1.0  0.83443  0.62055  0.22292  1.0000
  C   C311      1.0  0.82750  0.63583  0.20511  1.0000
  C   C312      1.0  0.80388  0.65482  0.20498  1.0000
  O   O93       1.0  0.76404  0.67722  0.22239  1.0000
  O   O94       1.0  0.77774  0.64703  0.25755  1.0000
  H   H119      1.0  0.82279  0.61308  0.25364  1.0000
  O   O95       1.0  0.85758  0.60187  0.22316  1.0000
  O   O96       1.0  0.84384  0.63221  0.18779  1.0000
  H   H120      1.0  0.79876  0.66611  0.19184  1.0000
  Cu  Cu12      1.0  0.87437  0.60366  0.19527  1.0000
  C   C313      1.0  0.84147  0.71275  0.77742  1.0000
  C   C314      1.0  0.85672  0.70582  0.75968  1.0000
  C   C315      1.0  0.87572  0.68223  0.75950  1.0000
  C   C316      1.0  0.87951  0.66551  0.77707  1.0000
  C   C317      1.0  0.86423  0.67244  0.79488  1.0000
  C   C318      1.0  0.84524  0.69605  0.79500  1.0000
  O   O97       1.0  0.82284  0.73589  0.77759  1.0000
  O   O98       1.0  0.85303  0.72219  0.74244  1.0000
  H   H121      1.0  0.88698  0.67714  0.74635  1.0000
  O   O99       1.0  0.89819  0.64235  0.77683  1.0000
  O   O100      1.0  0.86784  0.65611  0.81220  1.0000
  H   H122      1.0  0.83395  0.70118  0.80814  1.0000
  Cu  Cu13      1.0  0.89639  0.62557  0.80472  1.0000
  C   C319      1.0  0.78720  0.84147  0.27744  1.0000
  C   C320      1.0  0.79413  0.85671  0.25970  1.0000
  C   C321      1.0  0.81773  0.87570  0.25952  1.0000
  C   C322      1.0  0.83445  0.87949  0.27709  1.0000
  C   C323      1.0  0.82753  0.86421  0.29490  1.0000
  C   C324      1.0  0.80390  0.84523  0.29502  1.0000
  O   O101      1.0  0.76405  0.82284  0.27762  1.0000
  O   O102      1.0  0.77776  0.85303  0.24246  1.0000
  H   H123      1.0  0.82282  0.88696  0.24637  1.0000
  O   O103      1.0  0.85762  0.89816  0.27684  1.0000
  O   O104      1.0  0.84386  0.86782  0.31221  1.0000
  H   H124      1.0  0.79877  0.83394  0.30816  1.0000
  Cu  Cu14      1.0  0.87440  0.89636  0.30473  1.0000
  C   C325      1.0  0.64338  0.79410  0.75974  1.0000
  C   C326      1.0  0.65863  0.78716  0.77748  1.0000
  C   C327      1.0  0.65493  0.80380  0.79509  1.0000
  C   C328      1.0  0.63595  0.82742  0.79500  1.0000
  C   C329      1.0  0.62064  0.83441  0.77722  1.0000
  C   C330      1.0  0.62439  0.81772  0.75963  1.0000
  O   O105      1.0  0.64701  0.77778  0.74247  1.0000
  O   O106      1.0  0.67724  0.76401  0.77759  1.0000
  H   H125      1.0  0.66624  0.79862  0.80820  1.0000
  O   O107      1.0  0.63238  0.84371  0.81233  1.0000
  O   O108      1.0  0.60196  0.85759  0.77702  1.0000
  H   H126      1.0  0.61310  0.82286  0.74650  1.0000
  Cu  Cu15      1.0  0.60386  0.87428  0.80496  1.0000
  C   C331      1.0  0.70580  0.64339  0.25974  1.0000
  C   C332      1.0  0.71274  0.65865  0.27747  1.0000
  C   C333      1.0  0.69610  0.65496  0.29508  1.0000
  C   C334      1.0  0.67246  0.63600  0.29499  1.0000
  C   C335      1.0  0.66547  0.62069  0.27721  1.0000
  C   C336      1.0  0.68217  0.62443  0.25962  1.0000
  O   O109      1.0  0.72213  0.64701  0.24246  1.0000
  O   O110      1.0  0.73591  0.67725  0.27759  1.0000
  H   H127      1.0  0.70128  0.66628  0.30819  1.0000
  O   O111      1.0  0.65617  0.63244  0.31232  1.0000
  O   O112      1.0  0.64228  0.60202  0.27701  1.0000
  H   H128      1.0  0.67702  0.61313  0.24649  1.0000
  Cu  Cu16      1.0  0.62558  0.60395  0.30495  1.0000
  Cu  Cu17      1.0  0.50000  0.00010  0.99990  1.0000
  Cu  Cu18      1.0  0.50000  0.50000  0.50000  1.0000
  Cu  Cu19      1.0  0.00010  0.50000  0.99990  1.0000
  Cu  Cu20      1.0  0.00010  0.99990  0.50000  1.0000
  C   C337      1.0  0.24997  0.27759  0.25000  1.0000
  C   C338      1.0  0.22611  0.26381  0.25001  1.0000
  C   C339      1.0  0.22611  0.23626  0.25001  1.0000
  C   C340      1.0  0.24997  0.22248  0.25000  1.0000
  C   C341      1.0  0.27383  0.23626  0.25000  1.0000
  C   C342      1.0  0.27383  0.26381  0.25000  1.0000
  H   H129      1.0  0.24997  0.29825  0.25000  1.0000
  O   O113      1.0  0.20463  0.27621  0.25001  1.0000
  O   O114      1.0  0.20463  0.22386  0.25001  1.0000
  H   H130      1.0  0.24997  0.20182  0.25000  1.0000
  O   O115      1.0  0.29530  0.22386  0.25000  1.0000
  O   O116      1.0  0.29530  0.27621  0.25000  1.0000
  C   C343      1.0  0.22249  0.24997  0.75000  1.0000
  C   C344      1.0  0.23626  0.22611  0.74999  1.0000
  C   C345      1.0  0.26381  0.22611  0.74999  1.0000
  C   C346      1.0  0.27759  0.24997  0.75000  1.0000
  C   C347      1.0  0.26381  0.27383  0.75000  1.0000
  C   C348      1.0  0.23626  0.27383  0.75000  1.0000
  H   H131      1.0  0.20182  0.24997  0.75000  1.0000
  O   O117      1.0  0.22386  0.20463  0.74999  1.0000
  O   O118      1.0  0.27621  0.20463  0.74999  1.0000
  H   H132      1.0  0.29825  0.24997  0.75000  1.0000
  O   O119      1.0  0.27621  0.29530  0.75000  1.0000
  O   O120      1.0  0.22386  0.29530  0.75000  1.0000
  C   C349      1.0  0.75003  0.77752  0.75000  1.0000
  C   C350      1.0  0.77389  0.76374  0.74999  1.0000
  C   C351      1.0  0.77389  0.73619  0.74999  1.0000
  C   C352      1.0  0.75003  0.72241  0.74999  1.0000
  C   C353      1.0  0.72617  0.73619  0.75000  1.0000
  C   C354      1.0  0.72617  0.76374  0.75000  1.0000
  H   H133      1.0  0.75003  0.79818  0.75000  1.0000
  O   O121      1.0  0.79537  0.77614  0.74999  1.0000
  O   O122      1.0  0.79537  0.72379  0.74999  1.0000
  H   H134      1.0  0.75003  0.70175  0.74999  1.0000
  O   O123      1.0  0.70470  0.72379  0.75000  1.0000
  O   O124      1.0  0.70470  0.77614  0.75000  1.0000
  C   C355      1.0  0.72241  0.75003  0.25000  1.0000
  C   C356      1.0  0.73619  0.77389  0.25001  1.0000
  C   C357      1.0  0.76374  0.77389  0.25001  1.0000
  C   C358      1.0  0.77751  0.75003  0.25000  1.0000
  C   C359      1.0  0.76374  0.72617  0.25000  1.0000
  C   C360      1.0  0.73619  0.72617  0.25000  1.0000
  H   H135      1.0  0.70175  0.75003  0.25000  1.0000
  O   O125      1.0  0.72379  0.79537  0.25001  1.0000
  O   O126      1.0  0.77614  0.79537  0.25001  1.0000
  H   H136      1.0  0.79818  0.75003  0.25000  1.0000
  O   O127      1.0  0.77614  0.70470  0.25000  1.0000
  O   O128      1.0  0.72379  0.70470  0.25000  1.0000
