data_image0
_chemical_formula_structural       Fe8C18HO2H2O2H2O2HC18HO2H2O2H2O2HC18HO2H2O2H2O2HC18HO2H2O2H2O2HC18HO2H2O2H2O2HC18HO2H2O2H2O2HC18HO2H2O2H2O2HC18HO2H2O2H2O2HC6O2HO2HCuC6O2HO2HCuC6O2HO2HCuC6O2HO2HCuC6O2HO2HCuC6O2HO2HCuC6O2HO2HCuC6O2HO2HCuC6O2HO2HCuC6O2HO2HCuC6O2HO2HCuC6O2HO2HCuC6O2HO2HCuC6O2HO2HCuC6O2HO2HCuC6O2HO2HCu5C6HO2HO2C6HO2HO2C6HO2HO2C6HO2HO2
_chemical_formula_sum              "Fe8 C264 H88 O128 Cu20"
_cell_length_a       42.987
_cell_length_b       42.987
_cell_length_c       52.4913
_cell_angle_alpha    90.0028
_cell_angle_beta     89.998
_cell_angle_gamma    90.0045

_space_group_name_H-M_alt    "P 1"
_space_group_IT_number       1

loop_
  _space_group_symop_operation_xyz
  'x, y, z'

loop_
  _atom_site_type_symbol
  _atom_site_label
  _atom_site_symmetry_multiplicity
  _atom_site_fract_x
  _atom_site_fract_y
  _atom_site_fract_z
  _atom_site_occupancy
  Fe  Fe1       1.0  0.16319  0.25003  0.25000  1.0000
  Fe  Fe2       1.0  0.25004  0.16319  0.74999  1.0000
  Fe  Fe3       1.0  0.33678  0.25000  0.25000  1.0000
  Fe  Fe4       1.0  0.25001  0.33678  0.75001  1.0000
  Fe  Fe5       1.0  0.83681  0.74997  0.75000  1.0000
  Fe  Fe6       1.0  0.74996  0.83681  0.25001  1.0000
  Fe  Fe7       1.0  0.66322  0.75000  0.75000  1.0000
  Fe  Fe8       1.0  0.74999  0.66322  0.24999  1.0000
  C   C1        1.0  0.48372  0.02979  0.11682  1.0000
  C   C2        1.0  0.49835  0.02140  0.13963  1.0000
  C   C3        1.0  0.52138  0.99837  0.13963  1.0000
  C   C4        1.0  0.52978  0.98374  0.11682  1.0000
  C   C5        1.0  0.51515  0.99213  0.09400  1.0000
  C   C6        1.0  0.49212  0.01516  0.09400  1.0000
  C   C7        1.0  0.55281  0.96071  0.11682  1.0000
  C   C8        1.0  0.56744  0.95231  0.13963  1.0000
  C   C9        1.0  0.55904  0.96695  0.16245  1.0000
  C   C10       1.0  0.53601  0.98998  0.16244  1.0000
  C   C11       1.0  0.46069  0.05282  0.11682  1.0000
  C   C12       1.0  0.45230  0.06746  0.13963  1.0000
  C   C13       1.0  0.46693  0.05906  0.16244  1.0000
  C   C14       1.0  0.48996  0.03603  0.16244  1.0000
  C   C15       1.0  0.47749  0.02355  0.07119  1.0000
  C   C16       1.0  0.48588  0.00892  0.04838  1.0000
  C   C17       1.0  0.50891  0.98589  0.04838  1.0000
  C   C18       1.0  0.52354  0.97750  0.07119  1.0000
  H   H1        1.0  0.55910  0.94973  0.09971  1.0000
  O   O1        1.0  0.58816  0.93159  0.13963  1.0000
  O   O2        1.0  0.57221  0.95939  0.18298  1.0000
  H   H2        1.0  0.52971  0.00010  0.17956  1.0000
  H   H3        1.0  0.44972  0.05912  0.09971  1.0000
  O   O3        1.0  0.43157  0.08818  0.13963  1.0000
  O   O4        1.0  0.45937  0.07223  0.18298  1.0000
  H   H4        1.0  0.50093  0.02974  0.17955  1.0000
  H   H5        1.0  0.46022  0.04082  0.07119  1.0000
  O   O5        1.0  0.47272  0.01647  0.02784  1.0000
  O   O6        1.0  0.51647  0.97272  0.02784  1.0000
  H   H6        1.0  0.54081  0.96023  0.07119  1.0000
  C   C19       1.0  0.50160  0.52144  0.63962  1.0000
  C   C20       1.0  0.51624  0.52983  0.61681  1.0000
  C   C21       1.0  0.50784  0.51519  0.59400  1.0000
  C   C22       1.0  0.48481  0.49216  0.59400  1.0000
  C   C23       1.0  0.47018  0.48377  0.61681  1.0000
  C   C24       1.0  0.47857  0.49841  0.63962  1.0000
  C   C25       1.0  0.47642  0.47753  0.57118  1.0000
  C   C26       1.0  0.49105  0.48592  0.54837  1.0000
  C   C27       1.0  0.51408  0.50895  0.54837  1.0000
  C   C28       1.0  0.52248  0.52359  0.57118  1.0000
  C   C29       1.0  0.50999  0.53607  0.66244  1.0000
  C   C30       1.0  0.53302  0.55910  0.66244  1.0000
  C   C31       1.0  0.54766  0.56750  0.63962  1.0000
  C   C32       1.0  0.53926  0.55286  0.61681  1.0000
  C   C33       1.0  0.46393  0.49001  0.66244  1.0000
  C   C34       1.0  0.44090  0.46698  0.66244  1.0000
  C   C35       1.0  0.43251  0.45235  0.63962  1.0000
  C   C36       1.0  0.44715  0.46074  0.61681  1.0000
  H   H7        1.0  0.45914  0.46025  0.57118  1.0000
  O   O7        1.0  0.48350  0.47275  0.52784  1.0000
  O   O8        1.0  0.52725  0.51650  0.52784  1.0000
  H   H8        1.0  0.53975  0.54086  0.57118  1.0000
  H   H9        1.0  0.49902  0.52978  0.67955  1.0000
  O   O9        1.0  0.54058  0.57228  0.68297  1.0000
  O   O10       1.0  0.56839  0.58822  0.63962  1.0000
  H   H10       1.0  0.55024  0.55916  0.59970  1.0000
  H   H11       1.0  0.47023  0.50099  0.67955  1.0000
  O   O11       1.0  0.42773  0.45943  0.68297  1.0000
  O   O12       1.0  0.41178  0.43162  0.63962  1.0000
  H   H12       1.0  0.44085  0.44976  0.59970  1.0000
  C   C37       1.0  0.00163  0.47863  0.13963  1.0000
  C   C38       1.0  0.01627  0.47023  0.11682  1.0000
  C   C39       1.0  0.00787  0.48486  0.09401  1.0000
  C   C40       1.0  0.98485  0.50789  0.09400  1.0000
  C   C41       1.0  0.97021  0.51628  0.11682  1.0000
  C   C42       1.0  0.97861  0.50165  0.13963  1.0000
  C   C43       1.0  0.97645  0.52252  0.07119  1.0000
  C   C44       1.0  0.99109  0.51412  0.04838  1.0000
  C   C45       1.0  0.01412  0.49109  0.04838  1.0000
  C   C46       1.0  0.02251  0.47646  0.07119  1.0000
  C   C47       1.0  0.01003  0.46399  0.16245  1.0000
  C   C48       1.0  0.03306  0.44097  0.16245  1.0000
  C   C49       1.0  0.04769  0.43257  0.13963  1.0000
  C   C50       1.0  0.03930  0.44720  0.11682  1.0000
  C   C51       1.0  0.96397  0.51005  0.16245  1.0000
  C   C52       1.0  0.94094  0.53308  0.16244  1.0000
  C   C53       1.0  0.93255  0.54771  0.13963  1.0000
  C   C54       1.0  0.94718  0.53931  0.11682  1.0000
  H   H13       1.0  0.95918  0.53979  0.07119  1.0000
  O   O13       1.0  0.98353  0.52729  0.02784  1.0000
  O   O14       1.0  0.02729  0.48354  0.02785  1.0000
  H   H14       1.0  0.03978  0.45919  0.07119  1.0000
  H   H15       1.0  0.99990  0.47029  0.17956  1.0000
  O   O15       1.0  0.04061  0.42780  0.18298  1.0000
  O   O16       1.0  0.06842  0.41184  0.13964  1.0000
  H   H16       1.0  0.05027  0.44090  0.09971  1.0000
  H   H17       1.0  0.97027  0.49908  0.17956  1.0000
  O   O17       1.0  0.92777  0.54063  0.18298  1.0000
  O   O18       1.0  0.91182  0.56843  0.13963  1.0000
  H   H18       1.0  0.94089  0.55028  0.09971  1.0000
  C   C55       1.0  0.98381  0.97013  0.61681  1.0000
  C   C56       1.0  0.99845  0.97852  0.63962  1.0000
  C   C57       1.0  0.02148  0.00155  0.63962  1.0000
  C   C58       1.0  0.02987  0.01619  0.61681  1.0000
  C   C59       1.0  0.01523  0.00780  0.59400  1.0000
  C   C60       1.0  0.99220  0.98477  0.59400  1.0000
  C   C61       1.0  0.05290  0.03922  0.61681  1.0000
  C   C62       1.0  0.06754  0.04761  0.63962  1.0000
  C   C63       1.0  0.05915  0.03297  0.66243  1.0000
  C   C64       1.0  0.03612  0.00994  0.66243  1.0000
  C   C65       1.0  0.96078  0.94710  0.61681  1.0000
  C   C66       1.0  0.95239  0.93246  0.63962  1.0000
  C   C67       1.0  0.96703  0.94085  0.66243  1.0000
  C   C68       1.0  0.99006  0.96388  0.66243  1.0000
  C   C69       1.0  0.97756  0.97638  0.57118  1.0000
  C   C70       1.0  0.98595  0.99102  0.54837  1.0000
  C   C71       1.0  0.00898  0.01405  0.54837  1.0000
  C   C72       1.0  0.02362  0.02244  0.57118  1.0000
  H   H19       1.0  0.05919  0.05020  0.59970  1.0000
  O   O19       1.0  0.08827  0.06834  0.63962  1.0000
  O   O20       1.0  0.07233  0.04052  0.68296  1.0000
  H   H20       1.0  0.02983  0.99896  0.67954  1.0000
  H   H21       1.0  0.94980  0.94081  0.59970  1.0000
  O   O21       1.0  0.93167  0.91174  0.63962  1.0000
  O   O22       1.0  0.95948  0.92768  0.68296  1.0000
  H   H22       1.0  0.00104  0.97017  0.67954  1.0000
  H   H23       1.0  0.96029  0.95911  0.57118  1.0000
  O   O23       1.0  0.97277  0.98347  0.52784  1.0000
  O   O24       1.0  0.01653  0.02723  0.52784  1.0000
  H   H24       1.0  0.04089  0.03972  0.57118  1.0000
  C   C73       1.0  0.48376  0.47017  0.38319  1.0000
  C   C74       1.0  0.49840  0.47856  0.36038  1.0000
  C   C75       1.0  0.52143  0.50159  0.36038  1.0000
  C   C76       1.0  0.52982  0.51623  0.38319  1.0000
  C   C77       1.0  0.51519  0.50784  0.40600  1.0000
  C   C78       1.0  0.49216  0.48481  0.40600  1.0000
  C   C79       1.0  0.55285  0.53926  0.38319  1.0000
  C   C80       1.0  0.56749  0.54765  0.36038  1.0000
  C   C81       1.0  0.55910  0.53302  0.33756  1.0000
  C   C82       1.0  0.53607  0.50999  0.33756  1.0000
  C   C83       1.0  0.46074  0.44714  0.38319  1.0000
  C   C84       1.0  0.45234  0.43250  0.36038  1.0000
  C   C85       1.0  0.46698  0.44090  0.33756  1.0000
  C   C86       1.0  0.49001  0.46393  0.33756  1.0000
  C   C87       1.0  0.47752  0.47641  0.42882  1.0000
  C   C88       1.0  0.48592  0.49105  0.45163  1.0000
  C   C89       1.0  0.50895  0.51408  0.45163  1.0000
  C   C90       1.0  0.52358  0.52247  0.42882  1.0000
  H   H25       1.0  0.55915  0.55024  0.40030  1.0000
  O   O25       1.0  0.58822  0.56838  0.36038  1.0000
  O   O26       1.0  0.57227  0.54057  0.31703  1.0000
  H   H26       1.0  0.52977  0.49901  0.32045  1.0000
  H   H27       1.0  0.44976  0.44084  0.40030  1.0000
  O   O27       1.0  0.43161  0.41178  0.36038  1.0000
  O   O28       1.0  0.45942  0.42772  0.31703  1.0000
  H   H28       1.0  0.50098  0.47022  0.32045  1.0000
  H   H29       1.0  0.46025  0.45914  0.42882  1.0000
  O   O29       1.0  0.47275  0.48350  0.47216  1.0000
  O   O30       1.0  0.51650  0.52725  0.47216  1.0000
  H   H30       1.0  0.54086  0.53975  0.42882  1.0000
  C   C91       1.0  0.98373  0.52977  0.88318  1.0000
  C   C92       1.0  0.99837  0.52137  0.86037  1.0000
  C   C93       1.0  0.02139  0.49835  0.86037  1.0000
  C   C94       1.0  0.02979  0.48372  0.88318  1.0000
  C   C95       1.0  0.01515  0.49211  0.90600  1.0000
  C   C96       1.0  0.99213  0.51514  0.90599  1.0000
  C   C97       1.0  0.05282  0.46069  0.88318  1.0000
  C   C98       1.0  0.06745  0.45229  0.86037  1.0000
  C   C99       1.0  0.05906  0.46692  0.83756  1.0000
  C   C100      1.0  0.03603  0.48995  0.83755  1.0000
  C   C101      1.0  0.96070  0.55280  0.88318  1.0000
  C   C102      1.0  0.95231  0.56743  0.86037  1.0000
  C   C103      1.0  0.96694  0.55903  0.83755  1.0000
  C   C104      1.0  0.98997  0.53601  0.83755  1.0000
  C   C105      1.0  0.97749  0.52354  0.92881  1.0000
  C   C106      1.0  0.98588  0.50891  0.95162  1.0000
  C   C107      1.0  0.00891  0.48588  0.95162  1.0000
  C   C108      1.0  0.02355  0.47748  0.92881  1.0000
  H   H31       1.0  0.05911  0.44972  0.90029  1.0000
  O   O31       1.0  0.08818  0.43157  0.86037  1.0000
  O   O32       1.0  0.07223  0.45937  0.81702  1.0000
  H   H32       1.0  0.02973  0.50092  0.82044  1.0000
  H   H33       1.0  0.94973  0.55910  0.90029  1.0000
  O   O33       1.0  0.93158  0.58816  0.86036  1.0000
  O   O34       1.0  0.95939  0.57220  0.81702  1.0000
  H   H34       1.0  0.00010  0.52971  0.82044  1.0000
  H   H35       1.0  0.96022  0.54081  0.92881  1.0000
  O   O35       1.0  0.97271  0.51646  0.97215  1.0000
  O   O36       1.0  0.01647  0.47271  0.97216  1.0000
  H   H36       1.0  0.04082  0.46021  0.92881  1.0000
  C   C109      1.0  0.00155  0.02148  0.36038  1.0000
  C   C110      1.0  0.01619  0.02987  0.38319  1.0000
  C   C111      1.0  0.00780  0.01523  0.40600  1.0000
  C   C112      1.0  0.98477  0.99220  0.40600  1.0000
  C   C113      1.0  0.97013  0.98381  0.38319  1.0000
  C   C114      1.0  0.97852  0.99845  0.36038  1.0000
  C   C115      1.0  0.97638  0.97756  0.42882  1.0000
  C   C116      1.0  0.99102  0.98595  0.45163  1.0000
  C   C117      1.0  0.01405  0.00898  0.45163  1.0000
  C   C118      1.0  0.02244  0.02362  0.42882  1.0000
  C   C119      1.0  0.00994  0.03612  0.33757  1.0000
  C   C120      1.0  0.03297  0.05915  0.33757  1.0000
  C   C121      1.0  0.04761  0.06754  0.36038  1.0000
  C   C122      1.0  0.03922  0.05290  0.38319  1.0000
  C   C123      1.0  0.96388  0.99006  0.33757  1.0000
  C   C124      1.0  0.94085  0.96703  0.33757  1.0000
  C   C125      1.0  0.93246  0.95239  0.36038  1.0000
  C   C126      1.0  0.94710  0.96078  0.38319  1.0000
  H   H37       1.0  0.95911  0.96028  0.42882  1.0000
  O   O37       1.0  0.98347  0.97277  0.47216  1.0000
  O   O38       1.0  0.02723  0.01653  0.47216  1.0000
  H   H38       1.0  0.03971  0.04089  0.42882  1.0000
  H   H39       1.0  0.99896  0.02983  0.32046  1.0000
  O   O39       1.0  0.04052  0.07232  0.31704  1.0000
  O   O40       1.0  0.06833  0.08826  0.36038  1.0000
  H   H40       1.0  0.05020  0.05919  0.40030  1.0000
  H   H41       1.0  0.97017  0.00104  0.32046  1.0000
  O   O41       1.0  0.92767  0.95948  0.31704  1.0000
  O   O42       1.0  0.91173  0.93166  0.36038  1.0000
  H   H42       1.0  0.94081  0.94980  0.40030  1.0000
  C   C127      1.0  0.50165  0.97860  0.86037  1.0000
  C   C128      1.0  0.51628  0.97021  0.88318  1.0000
  C   C129      1.0  0.50788  0.98484  0.90600  1.0000
  C   C130      1.0  0.48485  0.00787  0.90600  1.0000
  C   C131      1.0  0.47022  0.01626  0.88318  1.0000
  C   C132      1.0  0.47862  0.00163  0.86037  1.0000
  C   C133      1.0  0.47646  0.02250  0.92881  1.0000
  C   C134      1.0  0.49109  0.01411  0.95162  1.0000
  C   C135      1.0  0.51412  0.99108  0.95162  1.0000
  C   C136      1.0  0.52251  0.97645  0.92881  1.0000
  C   C137      1.0  0.51004  0.96397  0.83756  1.0000
  C   C138      1.0  0.53307  0.94094  0.83756  1.0000
  C   C139      1.0  0.54770  0.93254  0.86037  1.0000
  C   C140      1.0  0.53931  0.94718  0.88318  1.0000
  C   C141      1.0  0.46399  0.01002  0.83756  1.0000
  C   C142      1.0  0.44096  0.03305  0.83755  1.0000
  C   C143      1.0  0.43256  0.04769  0.86037  1.0000
  C   C144      1.0  0.44719  0.03929  0.88318  1.0000
  H   H43       1.0  0.45919  0.03977  0.92881  1.0000
  O   O43       1.0  0.48353  0.02728  0.97216  1.0000
  O   O44       1.0  0.52728  0.98353  0.97216  1.0000
  H   H44       1.0  0.53978  0.95918  0.92881  1.0000
  H   H45       1.0  0.49907  0.97026  0.82045  1.0000
  O   O45       1.0  0.54063  0.92777  0.81702  1.0000
  O   O46       1.0  0.56843  0.91182  0.86037  1.0000
  H   H46       1.0  0.55028  0.94088  0.90029  1.0000
  H   H47       1.0  0.47029  0.99990  0.82044  1.0000
  O   O47       1.0  0.42779  0.04061  0.81702  1.0000
  O   O48       1.0  0.41184  0.06841  0.86037  1.0000
  H   H48       1.0  0.44090  0.05027  0.90029  1.0000
  C   C145      1.0  0.14098  0.20696  0.28728  1.0000
  C   C146      1.0  0.12306  0.19928  0.26269  1.0000
  C   C147      1.0  0.09949  0.17234  0.26234  1.0000
  C   C148      1.0  0.09377  0.15300  0.28658  1.0000
  C   C149      1.0  0.11172  0.16067  0.31127  1.0000
  C   C150      1.0  0.13529  0.18765  0.31154  1.0000
  O   O49       1.0  0.16411  0.23339  0.28762  1.0000
  O   O50       1.0  0.12864  0.21821  0.23890  1.0000
  H   H49       1.0  0.08626  0.16670  0.24412  1.0000
  O   O51       1.0  0.07059  0.12655  0.28615  1.0000
  O   O52       1.0  0.10624  0.14179  0.33516  1.0000
  H   H50       1.0  0.14855  0.19333  0.32975  1.0000
  Cu  Cu1       1.0  0.07122  0.10701  0.32467  1.0000
  C   C151      1.0  0.29312  0.14100  0.78727  1.0000
  C   C152      1.0  0.30080  0.12309  0.76268  1.0000
  C   C153      1.0  0.32776  0.09953  0.76233  1.0000
  C   C154      1.0  0.34709  0.09382  0.78657  1.0000
  C   C155      1.0  0.33942  0.11177  0.81125  1.0000
  C   C156      1.0  0.31243  0.13533  0.81153  1.0000
  O   O53       1.0  0.26668  0.16412  0.78761  1.0000
  O   O54       1.0  0.28187  0.12865  0.73889  1.0000
  H   H51       1.0  0.33340  0.08630  0.74410  1.0000
  O   O55       1.0  0.37355  0.07065  0.78613  1.0000
  O   O56       1.0  0.35830  0.10629  0.83515  1.0000
  H   H52       1.0  0.30675  0.14858  0.82974  1.0000
  Cu  Cu2       1.0  0.39309  0.07129  0.82466  1.0000
  C   C157      1.0  0.37686  0.30074  0.26276  1.0000
  C   C158      1.0  0.35893  0.29305  0.28734  1.0000
  C   C159      1.0  0.36453  0.31229  0.31163  1.0000
  C   C160      1.0  0.38808  0.33928  0.31141  1.0000
  C   C161      1.0  0.40609  0.34702  0.28676  1.0000
  C   C162      1.0  0.40041  0.32772  0.26249  1.0000
  O   O57       1.0  0.37135  0.28186  0.23892  1.0000
  O   O58       1.0  0.33583  0.26660  0.28759  1.0000
  H   H53       1.0  0.35123  0.30655  0.32980  1.0000
  O   O59       1.0  0.39351  0.35812  0.33532  1.0000
  O   O60       1.0  0.42926  0.37350  0.28639  1.0000
  H   H54       1.0  0.41369  0.33342  0.24430  1.0000
  Cu  Cu3       1.0  0.42849  0.39293  0.32499  1.0000
  C   C163      1.0  0.19926  0.37684  0.76277  1.0000
  C   C164      1.0  0.20695  0.35892  0.78735  1.0000
  C   C165      1.0  0.18770  0.36453  0.81164  1.0000
  C   C166      1.0  0.16071  0.38806  0.81141  1.0000
  C   C167      1.0  0.15296  0.40606  0.78677  1.0000
  C   C168      1.0  0.17227  0.40039  0.76250  1.0000
  O   O61       1.0  0.21814  0.37135  0.73893  1.0000
  O   O62       1.0  0.23341  0.33584  0.78762  1.0000
  H   H55       1.0  0.19344  0.35123  0.82982  1.0000
  O   O63       1.0  0.14186  0.39349  0.83533  1.0000
  O   O64       1.0  0.12647  0.42922  0.78639  1.0000
  H   H56       1.0  0.16657  0.41366  0.74430  1.0000
  Cu  Cu4       1.0  0.10703  0.42845  0.82498  1.0000
  C   C169      1.0  0.12313  0.30079  0.23725  1.0000
  C   C170      1.0  0.14105  0.29309  0.21266  1.0000
  C   C171      1.0  0.13545  0.31233  0.18837  1.0000
  C   C172      1.0  0.11192  0.33932  0.18860  1.0000
  C   C173      1.0  0.09392  0.34708  0.21324  1.0000
  C   C174      1.0  0.09958  0.32777  0.23751  1.0000
  O   O65       1.0  0.12862  0.28190  0.26108  1.0000
  O   O66       1.0  0.16414  0.26663  0.21240  1.0000
  H   H57       1.0  0.14875  0.30658  0.17020  1.0000
  O   O67       1.0  0.10649  0.35817  0.16468  1.0000
  O   O68       1.0  0.07075  0.37356  0.21362  1.0000
  H   H58       1.0  0.08631  0.33348  0.25571  1.0000
  Cu  Cu5       1.0  0.07153  0.39300  0.17502  1.0000
  C   C175      1.0  0.19930  0.12311  0.73723  1.0000
  C   C176      1.0  0.20700  0.14104  0.71265  1.0000
  C   C177      1.0  0.18776  0.13543  0.68836  1.0000
  C   C178      1.0  0.16077  0.11188  0.68858  1.0000
  C   C179      1.0  0.15302  0.09388  0.71323  1.0000
  C   C180      1.0  0.17233  0.09955  0.73750  1.0000
  O   O69       1.0  0.21818  0.12862  0.76107  1.0000
  O   O70       1.0  0.23344  0.16414  0.71239  1.0000
  H   H59       1.0  0.19350  0.14872  0.67018  1.0000
  O   O71       1.0  0.14193  0.10644  0.66467  1.0000
  O   O72       1.0  0.12655  0.07070  0.71361  1.0000
  H   H60       1.0  0.16662  0.08628  0.75569  1.0000
  Cu  Cu6       1.0  0.10712  0.07146  0.67501  1.0000
  C   C181      1.0  0.35897  0.20691  0.21272  1.0000
  C   C182      1.0  0.37688  0.19923  0.23731  1.0000
  C   C183      1.0  0.40044  0.17228  0.23766  1.0000
  C   C184      1.0  0.40616  0.15294  0.21342  1.0000
  C   C185      1.0  0.38821  0.16061  0.18874  1.0000
  C   C186      1.0  0.36465  0.18760  0.18846  1.0000
  O   O73       1.0  0.33586  0.23336  0.21237  1.0000
  O   O74       1.0  0.37132  0.21817  0.26110  1.0000
  H   H61       1.0  0.41367  0.16664  0.25589  1.0000
  O   O75       1.0  0.42933  0.12648  0.21386  1.0000
  O   O76       1.0  0.39369  0.14172  0.16484  1.0000
  H   H62       1.0  0.35140  0.19328  0.17025  1.0000
  Cu  Cu7       1.0  0.42869  0.10693  0.17534  1.0000
  C   C187      1.0  0.29309  0.35899  0.71273  1.0000
  C   C188      1.0  0.30077  0.37691  0.73732  1.0000
  C   C189      1.0  0.32771  0.40048  0.73767  1.0000
  C   C190      1.0  0.34705  0.40619  0.71343  1.0000
  C   C191      1.0  0.33938  0.38823  0.68875  1.0000
  C   C192      1.0  0.31240  0.36467  0.68847  1.0000
  O   O77       1.0  0.26665  0.33586  0.71239  1.0000
  O   O78       1.0  0.28183  0.37134  0.76111  1.0000
  H   H63       1.0  0.33335  0.41371  0.75590  1.0000
  O   O79       1.0  0.37350  0.42937  0.71386  1.0000
  O   O80       1.0  0.35826  0.39371  0.66485  1.0000
  H   H64       1.0  0.30672  0.35140  0.67026  1.0000
  Cu  Cu8       1.0  0.39304  0.42873  0.67534  1.0000
  C   C193      1.0  0.87689  0.80071  0.73724  1.0000
  C   C194      1.0  0.85897  0.79301  0.71265  1.0000
  C   C195      1.0  0.86458  0.81225  0.68836  1.0000
  C   C196      1.0  0.88813  0.83924  0.68858  1.0000
  C   C197      1.0  0.90613  0.84699  0.71323  1.0000
  C   C198      1.0  0.90045  0.82768  0.73750  1.0000
  O   O81       1.0  0.87139  0.78183  0.76107  1.0000
  O   O82       1.0  0.83587  0.76656  0.71240  1.0000
  H   H65       1.0  0.85128  0.80651  0.67019  1.0000
  O   O83       1.0  0.89356  0.85807  0.66467  1.0000
  O   O84       1.0  0.92931  0.87346  0.71361  1.0000
  H   H66       1.0  0.91373  0.83338  0.75570  1.0000
  Cu  Cu9       1.0  0.92854  0.89289  0.67501  1.0000
  C   C199      1.0  0.69921  0.87687  0.23725  1.0000
  C   C200      1.0  0.70691  0.85894  0.21267  1.0000
  C   C201      1.0  0.68767  0.86455  0.18837  1.0000
  C   C202      1.0  0.66067  0.88808  0.18860  1.0000
  C   C203      1.0  0.65292  0.90608  0.21324  1.0000
  C   C204      1.0  0.67223  0.90042  0.23752  1.0000
  O   O85       1.0  0.71809  0.87137  0.26109  1.0000
  O   O86       1.0  0.73336  0.83586  0.21241  1.0000
  H   H67       1.0  0.69341  0.85125  0.17020  1.0000
  O   O87       1.0  0.64184  0.89351  0.16468  1.0000
  O   O88       1.0  0.62644  0.92925  0.21362  1.0000
  H   H68       1.0  0.66652  0.91369  0.25571  1.0000
  Cu  Cu10      1.0  0.60701  0.92847  0.17502  1.0000
  C   C205      1.0  0.64102  0.70692  0.71273  1.0000
  C   C206      1.0  0.62310  0.69925  0.73732  1.0000
  C   C207      1.0  0.59953  0.67230  0.73767  1.0000
  C   C208      1.0  0.59382  0.65296  0.71342  1.0000
  C   C209      1.0  0.61177  0.66063  0.68874  1.0000
  C   C210      1.0  0.63534  0.68761  0.68847  1.0000
  O   O89       1.0  0.66415  0.73336  0.71238  1.0000
  O   O90       1.0  0.62867  0.71818  0.76111  1.0000
  H   H69       1.0  0.58630  0.66666  0.75589  1.0000
  O   O91       1.0  0.57063  0.62651  0.71386  1.0000
  O   O92       1.0  0.60629  0.64175  0.66484  1.0000
  H   H70       1.0  0.64860  0.69329  0.67026  1.0000
  Cu  Cu11      1.0  0.57127  0.60697  0.67533  1.0000
  C   C211      1.0  0.79308  0.64102  0.21271  1.0000
  C   C212      1.0  0.80076  0.62311  0.23731  1.0000
  C   C213      1.0  0.82771  0.59956  0.23766  1.0000
  C   C214      1.0  0.84706  0.59385  0.21342  1.0000
  C   C215      1.0  0.83938  0.61179  0.18873  1.0000
  C   C216      1.0  0.81239  0.63535  0.18845  1.0000
  O   O93       1.0  0.76663  0.66414  0.21236  1.0000
  O   O94       1.0  0.78182  0.62868  0.26109  1.0000
  H   H71       1.0  0.83335  0.58633  0.25589  1.0000
  O   O95       1.0  0.87352  0.57068  0.21386  1.0000
  O   O96       1.0  0.85828  0.60632  0.16484  1.0000
  H   H72       1.0  0.80672  0.64860  0.17024  1.0000
  Cu  Cu12      1.0  0.89307  0.57132  0.17534  1.0000
  C   C217      1.0  0.85900  0.70688  0.78727  1.0000
  C   C218      1.0  0.87692  0.69920  0.76268  1.0000
  C   C219      1.0  0.90047  0.67225  0.76233  1.0000
  C   C220      1.0  0.90618  0.65291  0.78657  1.0000
  C   C221      1.0  0.88823  0.66059  0.81125  1.0000
  C   C222      1.0  0.86468  0.68757  0.81153  1.0000
  O   O97       1.0  0.83589  0.73333  0.78762  1.0000
  O   O98       1.0  0.87135  0.71814  0.73890  1.0000
  H   H73       1.0  0.91370  0.66661  0.74410  1.0000
  O   O99       1.0  0.92935  0.62645  0.78613  1.0000
  O   O100      1.0  0.89370  0.64170  0.83515  1.0000
  H   H74       1.0  0.85142  0.69326  0.82974  1.0000
  Cu  Cu13      1.0  0.92870  0.60690  0.82465  1.0000
  C   C223      1.0  0.79303  0.85902  0.28729  1.0000
  C   C224      1.0  0.80071  0.87693  0.26269  1.0000
  C   C225      1.0  0.82766  0.90050  0.26234  1.0000
  C   C226      1.0  0.84699  0.90622  0.28659  1.0000
  C   C227      1.0  0.83932  0.88827  0.31127  1.0000
  C   C228      1.0  0.81234  0.86470  0.31155  1.0000
  O   O101      1.0  0.76660  0.83589  0.28763  1.0000
  O   O102      1.0  0.78178  0.87136  0.23891  1.0000
  H   H75       1.0  0.83329  0.91374  0.24412  1.0000
  O   O103      1.0  0.87344  0.92941  0.28615  1.0000
  O   O104      1.0  0.85821  0.89376  0.33517  1.0000
  H   H76       1.0  0.80666  0.85144  0.32975  1.0000
  Cu  Cu14      1.0  0.89299  0.92878  0.32467  1.0000
  C   C229      1.0  0.62316  0.80075  0.76276  1.0000
  C   C230      1.0  0.64108  0.79306  0.78735  1.0000
  C   C231      1.0  0.63548  0.81230  0.81164  1.0000
  C   C232      1.0  0.61194  0.83930  0.81141  1.0000
  C   C233      1.0  0.59394  0.84705  0.78677  1.0000
  C   C234      1.0  0.59961  0.82773  0.76249  1.0000
  O   O105      1.0  0.62866  0.78187  0.73893  1.0000
  O   O106      1.0  0.66417  0.76660  0.78761  1.0000
  H   H77       1.0  0.64877  0.80656  0.82981  1.0000
  O   O107      1.0  0.60651  0.85814  0.83533  1.0000
  O   O108      1.0  0.57078  0.87353  0.78638  1.0000
  H   H78       1.0  0.58634  0.83344  0.74430  1.0000
  Cu  Cu15      1.0  0.57155  0.89297  0.82498  1.0000
  C   C235      1.0  0.69925  0.62314  0.26275  1.0000
  C   C236      1.0  0.70694  0.64107  0.28733  1.0000
  C   C237      1.0  0.68770  0.63546  0.31163  1.0000
  C   C238      1.0  0.66071  0.61191  0.31140  1.0000
  C   C239      1.0  0.65297  0.59391  0.28676  1.0000
  C   C240      1.0  0.67227  0.59958  0.26249  1.0000
  O   O109      1.0  0.71812  0.62864  0.23891  1.0000
  O   O110      1.0  0.73339  0.66417  0.28759  1.0000
  H   H79       1.0  0.69344  0.64876  0.32980  1.0000
  O   O111      1.0  0.64188  0.60648  0.33532  1.0000
  O   O112      1.0  0.62649  0.57073  0.28638  1.0000
  H   H80       1.0  0.66657  0.58630  0.24429  1.0000
  Cu  Cu16      1.0  0.60706  0.57150  0.32499  1.0000
  Cu  Cu17      1.0  0.50000  0.99990  0.99990  1.0000
  Cu  Cu18      1.0  0.50000  0.50000  0.50000  1.0000
  Cu  Cu19      1.0  0.00010  0.50000  0.99990  1.0000
  Cu  Cu20      1.0  0.00010  0.00010  0.50000  1.0000
  C   C241      1.0  0.24999  0.28258  0.25000  1.0000
  C   C242      1.0  0.22178  0.26631  0.25000  1.0000
  C   C243      1.0  0.22177  0.23374  0.25000  1.0000
  C   C244      1.0  0.24997  0.21745  0.25000  1.0000
  C   C245      1.0  0.27818  0.23373  0.25000  1.0000
  C   C246      1.0  0.27819  0.26629  0.25000  1.0000
  H   H81       1.0  0.25000  0.30701  0.25000  1.0000
  O   O113      1.0  0.19640  0.28097  0.25000  1.0000
  O   O114      1.0  0.19639  0.21909  0.25000  1.0000
  H   H82       1.0  0.24997  0.19302  0.25000  1.0000
  O   O115      1.0  0.30356  0.21906  0.25000  1.0000
  O   O116      1.0  0.30358  0.28094  0.24999  1.0000
  C   C247      1.0  0.21746  0.24998  0.75000  1.0000
  C   C248      1.0  0.23375  0.22178  0.75000  1.0000
  C   C249      1.0  0.26632  0.22179  0.75000  1.0000
  C   C250      1.0  0.28260  0.25000  0.75000  1.0000
  C   C251      1.0  0.26631  0.27820  0.75001  1.0000
  C   C252      1.0  0.23374  0.27819  0.75001  1.0000
  H   H83       1.0  0.19303  0.24997  0.75000  1.0000
  O   O117      1.0  0.21910  0.19639  0.74999  1.0000
  O   O118      1.0  0.28098  0.19641  0.74999  1.0000
  H   H84       1.0  0.30702  0.25000  0.75000  1.0000
  O   O119      1.0  0.28096  0.30359  0.75001  1.0000
  O   O120      1.0  0.21908  0.30357  0.75001  1.0000
  C   C253      1.0  0.75003  0.78255  0.75000  1.0000
  C   C254      1.0  0.77823  0.76626  0.75000  1.0000
  C   C255      1.0  0.77822  0.73369  0.75000  1.0000
  C   C256      1.0  0.75001  0.71742  0.75000  1.0000
  C   C257      1.0  0.72181  0.73371  0.75000  1.0000
  C   C258      1.0  0.72182  0.76627  0.75000  1.0000
  H   H85       1.0  0.75003  0.80698  0.75000  1.0000
  O   O121      1.0  0.80361  0.78091  0.75000  1.0000
  O   O122      1.0  0.80360  0.71903  0.75000  1.0000
  H   H86       1.0  0.75000  0.69299  0.75000  1.0000
  O   O123      1.0  0.69642  0.71906  0.75000  1.0000
  O   O124      1.0  0.69644  0.78094  0.75001  1.0000
  C   C259      1.0  0.71741  0.75000  0.25000  1.0000
  C   C260      1.0  0.73368  0.77821  0.25000  1.0000
  C   C261      1.0  0.76625  0.77822  0.25000  1.0000
  C   C262      1.0  0.78254  0.75002  0.25000  1.0000
  C   C263      1.0  0.76626  0.72181  0.24999  1.0000
  C   C264      1.0  0.73369  0.72180  0.24999  1.0000
  H   H87       1.0  0.69298  0.75000  0.25000  1.0000
  O   O125      1.0  0.71902  0.80359  0.25001  1.0000
  O   O126      1.0  0.78090  0.80361  0.25001  1.0000
  H   H88       1.0  0.80697  0.75003  0.25000  1.0000
  O   O127      1.0  0.78092  0.69643  0.24999  1.0000
  O   O128      1.0  0.71904  0.69641  0.24999  1.0000
