data_image0
_chemical_formula_structural       Fe16C7NCNCNC3NCNC11NCNC7NHO2H2O2H2O2H2O2HNiC7NCNCNC3NCNC11NCNC7NHO2H2O2H2O2H2O2HNiC7NCNCNC3NCNC11NCNC7NHO2H2O2H2O2H2O2HNiC7NCNCNC3NCNC11NCNC7NHO2H2O2H2O2H2O2HNiC7NCNCNC3NCNC11NCNC7NHO2H2O2H2O2H2O2HNiC7NCNCNC3NCNC11NCNC7NHO2H2O2H2O2H2O2HNiC7NCNCNC3NCNC11NCNC7NHO2H2O2H2O2H2O2HNiC7NCNCNC3NCNC11NCNC7NHO2H2O2H2O2H2O2HNiC7NCNCNC3NCNC11NCNC7NHO2H2O2H2O2H2O2HNiC7NCNCNC3NCNC11NCNC7NHO2H2O2H2O2H2O2HNiC7NCNCNC3NCNC11NCNC7NHO2H2O2H2O2H2O2HNiC7NCNCNC3NCNC11NCNC7NHO2H2O2H2O2H2O2HNiC6O2HO2HCuC6O2HO2HCuC6O2HO2HCuC6O2HO2HCuC6O2HO2HCuC6O2HO2HCuC6O2HO2HCuC6O2HO2HCuC6O2HO2HCuC6O2HO2HCuC6O2HO2HCuC6O2HO2HCuC6O2HO2HCuC6O2HO2HCuC6O2HO2HCuC6O2HO2HCuC6O2HO2HCuC6O2HO2HCuC6O2HO2HCuC6O2HO2HCuC6O2HO2HCuC6O2HO2HCuC6O2HO2HCuC6O2HO2HCuC6O2HO2HCuC6O2HO2HCuC6O2HO2HCuC6O2HO2HCuC6O2HO2HCuC6O2HO2HCuC6O2HO2HCuC6O2HO2HCuC6O2HO2HCuC6O2HO2HCuC6O2HO2HCuC6O2HO2HCuC6O2HO2HCuC6O2HO2HCuC6O2HO2HCuC6O2HO2HCuC6O2HO2HCuC6O2HO2HCuC6O2HO2HCuC6O2HO2HCuC6O2HO2HCuC6O2HO2HCuC6O2HO2HCuC6O2HO2HCu
_chemical_formula_sum              "Fe16 C672 N96 H192 O288 Ni12 Cu48"
_cell_length_a       72.0968
_cell_length_b       72.0868
_cell_length_c       50.974
_cell_angle_alpha    90.002
_cell_angle_beta     90.001
_cell_angle_gamma    90.0052

_space_group_name_H-M_alt    "P 1"
_space_group_IT_number       1

loop_
  _space_group_symop_operation_xyz
  'x, y, z'

loop_
  _atom_site_type_symbol
  _atom_site_label
  _atom_site_symmetry_multiplicity
  _atom_site_fract_x
  _atom_site_fract_y
  _atom_site_fract_z
  _atom_site_occupancy
  Fe  Fe1       1.0  0.00010  0.25088  0.25038  1.0000
  Fe  Fe2       1.0  0.75042  0.00010  0.25044  1.0000
  Fe  Fe3       1.0  0.00010  0.75086  0.25035  1.0000
  Fe  Fe4       1.0  0.25038  0.00010  0.25042  1.0000
  Fe  Fe5       1.0  0.00010  0.75086  0.75033  1.0000
  Fe  Fe6       1.0  0.25037  0.00010  0.75043  1.0000
  Fe  Fe7       1.0  0.00010  0.25088  0.75036  1.0000
  Fe  Fe8       1.0  0.75040  0.00106  0.75040  1.0000
  Fe  Fe9       1.0  0.50059  0.75088  0.75054  1.0000
  Fe  Fe10      1.0  0.25043  0.50106  0.75048  1.0000
  Fe  Fe11      1.0  0.50024  0.25085  0.75052  1.0000
  Fe  Fe12      1.0  0.75039  0.50071  0.75044  1.0000
  Fe  Fe13      1.0  0.50032  0.25087  0.25050  1.0000
  Fe  Fe14      1.0  0.75036  0.50082  0.25046  1.0000
  Fe  Fe15      1.0  0.50043  0.75089  0.25052  1.0000
  Fe  Fe16      1.0  0.25040  0.50096  0.25045  1.0000
  C   C1        1.0  0.02202  0.92101  0.25016  1.0000
  C   C2        1.0  0.01117  0.90248  0.25023  1.0000
  C   C3        1.0  0.98959  0.90248  0.25032  1.0000
  C   C4        1.0  0.97875  0.92102  0.25037  1.0000
  C   C5        1.0  0.99007  0.93900  0.25031  1.0000
  C   C6        1.0  0.01071  0.93899  0.25020  1.0000
  C   C7        1.0  0.01716  0.95920  0.25017  1.0000
  N   N1        1.0  0.00010  0.97227  0.25026  1.0000
  C   C8        1.0  0.98362  0.95921  0.25035  1.0000
  N   N2        1.0  0.96384  0.96432  0.25047  1.0000
  C   C9        1.0  0.95874  0.98410  0.25046  1.0000
  N   N3        1.0  0.97182  0.00010  0.25037  1.0000
  C   C10       1.0  0.95876  0.01765  0.25033  1.0000
  C   C11       1.0  0.93855  0.01121  0.25042  1.0000
  C   C12       1.0  0.93854  0.99056  0.25049  1.0000
  N   N4        1.0  0.00010  0.02946  0.25031  1.0000
  C   C13       1.0  0.98365  0.04253  0.25024  1.0000
  N   N5        1.0  0.96387  0.03743  0.25020  1.0000
  C   C14       1.0  0.99011  0.06274  0.25029  1.0000
  C   C15       1.0  0.01075  0.06273  0.25040  1.0000
  C   C16       1.0  0.01719  0.04252  0.25043  1.0000
  C   C17       1.0  0.92055  0.97926  0.25053  1.0000
  C   C18       1.0  0.90203  0.99012  0.25053  1.0000
  C   C19       1.0  0.90204  0.01171  0.25051  1.0000
  C   C20       1.0  0.92059  0.02254  0.25043  1.0000
  C   C21       1.0  0.02207  0.08071  0.25045  1.0000
  C   C22       1.0  0.01124  0.09924  0.25037  1.0000
  C   C23       1.0  0.98966  0.09925  0.25028  1.0000
  C   C24       1.0  0.97880  0.08072  0.25024  1.0000
  N   N6        1.0  0.02899  0.00010  0.25034  1.0000
  C   C25       1.0  0.04207  0.01763  0.25046  1.0000
  N   N7        1.0  0.03697  0.03741  0.25056  1.0000
  C   C26       1.0  0.06227  0.01118  0.25045  1.0000
  C   C27       1.0  0.06226  0.99053  0.25032  1.0000
  C   C28       1.0  0.04206  0.98408  0.25024  1.0000
  C   C29       1.0  0.08024  0.97922  0.25032  1.0000
  C   C30       1.0  0.09877  0.99006  0.25045  1.0000
  C   C31       1.0  0.09877  0.01165  0.25053  1.0000
  C   C32       1.0  0.08024  0.02249  0.25054  1.0000
  N   N8        1.0  0.03694  0.96430  0.25010  1.0000
  H   H1        1.0  0.03658  0.92125  0.25010  1.0000
  O   O1        1.0  0.02014  0.88683  0.25021  1.0000
  O   O2        1.0  0.98062  0.88684  0.25036  1.0000
  H   H2        1.0  0.96419  0.92126  0.25044  1.0000
  H   H3        1.0  0.92078  0.96470  0.25055  1.0000
  O   O3        1.0  0.88638  0.98116  0.25054  1.0000
  O   O4        1.0  0.88641  0.02069  0.25055  1.0000
  H   H4        1.0  0.92083  0.03710  0.25040  1.0000
  H   H5        1.0  0.03663  0.08046  0.25052  1.0000
  O   O5        1.0  0.02021  0.11488  0.25036  1.0000
  O   O6        1.0  0.98069  0.11490  0.25023  1.0000
  H   H6        1.0  0.96424  0.08049  0.25019  1.0000
  H   H7        1.0  0.08000  0.96465  0.25026  1.0000
  O   O7        1.0  0.11441  0.98109  0.25049  1.0000
  O   O8        1.0  0.11442  0.02062  0.25059  1.0000
  H   H8        1.0  0.08000  0.03706  0.25061  1.0000
  Ni  Ni1       1.0  0.00010  0.00010  0.25028  1.0000
  C   C33       1.0  0.02196  0.92101  0.75020  1.0000
  C   C34       1.0  0.01111  0.90248  0.75026  1.0000
  C   C35       1.0  0.98953  0.90249  0.75035  1.0000
  C   C36       1.0  0.97869  0.92103  0.75040  1.0000
  C   C37       1.0  0.99002  0.93901  0.75034  1.0000
  C   C38       1.0  0.01066  0.93900  0.75023  1.0000
  C   C39       1.0  0.01712  0.95920  0.75020  1.0000
  N   N9        1.0  0.00010  0.97228  0.75029  1.0000
  C   C40       1.0  0.98358  0.95922  0.75038  1.0000
  N   N10       1.0  0.96380  0.96433  0.75050  1.0000
  C   C41       1.0  0.95871  0.98412  0.75049  1.0000
  N   N11       1.0  0.97179  0.00010  0.75040  1.0000
  C   C42       1.0  0.95873  0.01767  0.75036  1.0000
  C   C43       1.0  0.93853  0.01123  0.75044  1.0000
  C   C44       1.0  0.93851  0.99059  0.75051  1.0000
  N   N12       1.0  0.00010  0.02946  0.75034  1.0000
  C   C45       1.0  0.98364  0.04255  0.75027  1.0000
  N   N13       1.0  0.96385  0.03745  0.75023  1.0000
  C   C46       1.0  0.99010  0.06275  0.75032  1.0000
  C   C47       1.0  0.01074  0.06273  0.75043  1.0000
  C   C48       1.0  0.01718  0.04252  0.75046  1.0000
  C   C49       1.0  0.92052  0.97930  0.75055  1.0000
  C   C50       1.0  0.90199  0.99016  0.75055  1.0000
  C   C51       1.0  0.90202  0.01174  0.75053  1.0000
  C   C52       1.0  0.92056  0.02257  0.75046  1.0000
  C   C53       1.0  0.02207  0.08071  0.75048  1.0000
  C   C54       1.0  0.01124  0.09925  0.75040  1.0000
  C   C55       1.0  0.98966  0.09926  0.75031  1.0000
  C   C56       1.0  0.97880  0.08074  0.75027  1.0000
  N   N14       1.0  0.02896  0.00010  0.75037  1.0000
  C   C57       1.0  0.04204  0.01762  0.75050  1.0000
  N   N15       1.0  0.03695  0.03741  0.75059  1.0000
  C   C58       1.0  0.06224  0.01116  0.75049  1.0000
  C   C59       1.0  0.06223  0.99052  0.75036  1.0000
  C   C60       1.0  0.04202  0.98407  0.75027  1.0000
  C   C61       1.0  0.08020  0.97920  0.75036  1.0000
  C   C62       1.0  0.09874  0.99004  0.75048  1.0000
  C   C63       1.0  0.09875  0.01162  0.75057  1.0000
  C   C64       1.0  0.08022  0.02247  0.75057  1.0000
  N   N16       1.0  0.03690  0.96429  0.75013  1.0000
  H   H9        1.0  0.03653  0.92124  0.75014  1.0000
  O   O9        1.0  0.02007  0.88683  0.75024  1.0000
  O   O10       1.0  0.98055  0.88685  0.75039  1.0000
  H   H10       1.0  0.96413  0.92128  0.75047  1.0000
  H   H11       1.0  0.92074  0.96473  0.75058  1.0000
  O   O11       1.0  0.88634  0.98121  0.75056  1.0000
  O   O12       1.0  0.88639  0.02073  0.75057  1.0000
  H   H12       1.0  0.92082  0.03713  0.75043  1.0000
  H   H13       1.0  0.03663  0.08046  0.75055  1.0000
  O   O13       1.0  0.02022  0.11488  0.75040  1.0000
  O   O14       1.0  0.98070  0.11491  0.75026  1.0000
  H   H14       1.0  0.96424  0.08051  0.75022  1.0000
  H   H15       1.0  0.07996  0.96463  0.75029  1.0000
  O   O15       1.0  0.11438  0.98106  0.75053  1.0000
  O   O16       1.0  0.11439  0.02059  0.75063  1.0000
  H   H16       1.0  0.07998  0.03704  0.75065  1.0000
  Ni  Ni2       1.0  0.00010  0.00010  0.75031  1.0000
  C   C65       1.0  0.52199  0.42100  0.74975  1.0000
  C   C66       1.0  0.51113  0.40247  0.74982  1.0000
  C   C67       1.0  0.48955  0.40249  0.74991  1.0000
  C   C68       1.0  0.47872  0.42103  0.74996  1.0000
  C   C69       1.0  0.49004  0.43900  0.74990  1.0000
  C   C70       1.0  0.51068  0.43899  0.74978  1.0000
  C   C71       1.0  0.51715  0.45919  0.74975  1.0000
  N   N17       1.0  0.50038  0.47227  0.74984  1.0000
  C   C72       1.0  0.48360  0.45921  0.74994  1.0000
  N   N18       1.0  0.46383  0.46433  0.75006  1.0000
  C   C73       1.0  0.45873  0.48412  0.75005  1.0000
  N   N19       1.0  0.47182  0.50088  0.74996  1.0000
  C   C74       1.0  0.45876  0.51767  0.74992  1.0000
  C   C75       1.0  0.43855  0.51123  0.75001  1.0000
  C   C76       1.0  0.43853  0.49059  0.75008  1.0000
  N   N20       1.0  0.50042  0.52946  0.74990  1.0000
  C   C77       1.0  0.48366  0.54254  0.74982  1.0000
  N   N21       1.0  0.46388  0.53745  0.74979  1.0000
  C   C78       1.0  0.49013  0.56274  0.74988  1.0000
  C   C79       1.0  0.51077  0.56273  0.74999  1.0000
  C   C80       1.0  0.51721  0.54252  0.75002  1.0000
  C   C81       1.0  0.42054  0.47929  0.75012  1.0000
  C   C82       1.0  0.40202  0.49016  0.75012  1.0000
  C   C83       1.0  0.40205  0.51174  0.75010  1.0000
  C   C84       1.0  0.42059  0.52257  0.75002  1.0000
  C   C85       1.0  0.52210  0.58070  0.75003  1.0000
  C   C86       1.0  0.51127  0.59924  0.74995  1.0000
  C   C87       1.0  0.48969  0.59926  0.74986  1.0000
  C   C88       1.0  0.47883  0.58073  0.74983  1.0000
  N   N22       1.0  0.52899  0.50085  0.74992  1.0000
  C   C89       1.0  0.54207  0.51761  0.75005  1.0000
  N   N23       1.0  0.53698  0.53740  0.75014  1.0000
  C   C90       1.0  0.56227  0.51115  0.75004  1.0000
  C   C91       1.0  0.56226  0.49051  0.74991  1.0000
  C   C92       1.0  0.54205  0.48407  0.74982  1.0000
  C   C93       1.0  0.58023  0.47919  0.74991  1.0000
  C   C94       1.0  0.59877  0.49003  0.75003  1.0000
  C   C95       1.0  0.59878  0.51161  0.75011  1.0000
  C   C96       1.0  0.58025  0.52246  0.75012  1.0000
  N   N24       1.0  0.53693  0.46429  0.74969  1.0000
  H   H17       1.0  0.53655  0.42123  0.74969  1.0000
  O   O17       1.0  0.52009  0.38682  0.74979  1.0000
  O   O18       1.0  0.48057  0.38684  0.74995  1.0000
  H   H18       1.0  0.46415  0.42128  0.75003  1.0000
  H   H19       1.0  0.42076  0.46473  0.75015  1.0000
  O   O19       1.0  0.38637  0.48121  0.75013  1.0000
  O   O20       1.0  0.38642  0.52073  0.75015  1.0000
  H   H20       1.0  0.42085  0.53713  0.74999  1.0000
  H   H21       1.0  0.53666  0.58045  0.75010  1.0000
  O   O21       1.0  0.52026  0.61488  0.74995  1.0000
  O   O22       1.0  0.48074  0.61491  0.74981  1.0000
  H   H22       1.0  0.46427  0.58051  0.74977  1.0000
  H   H23       1.0  0.57999  0.46462  0.74984  1.0000
  O   O23       1.0  0.61440  0.48105  0.75007  1.0000
  O   O24       1.0  0.61442  0.52058  0.75017  1.0000
  H   H24       1.0  0.58001  0.53703  0.75019  1.0000
  Ni  Ni3       1.0  0.50040  0.50086  0.74986  1.0000
  C   C97       1.0  0.52200  0.42102  0.25061  1.0000
  C   C98       1.0  0.51115  0.40249  0.25067  1.0000
  C   C99       1.0  0.48957  0.40249  0.25076  1.0000
  C   C100      1.0  0.47873  0.42103  0.25081  1.0000
  C   C101      1.0  0.49004  0.43901  0.25076  1.0000
  C   C102      1.0  0.51069  0.43900  0.25064  1.0000
  C   C103      1.0  0.51714  0.45921  0.25061  1.0000
  N   N25       1.0  0.50037  0.47228  0.25070  1.0000
  C   C104      1.0  0.48360  0.45922  0.25079  1.0000
  N   N26       1.0  0.46382  0.46432  0.25091  1.0000
  C   C105      1.0  0.45872  0.48411  0.25090  1.0000
  N   N27       1.0  0.47179  0.50088  0.25081  1.0000
  C   C106      1.0  0.45873  0.51766  0.25077  1.0000
  C   C107      1.0  0.43852  0.51121  0.25086  1.0000
  C   C108      1.0  0.43851  0.49057  0.25092  1.0000
  N   N28       1.0  0.50039  0.52947  0.25076  1.0000
  C   C109      1.0  0.48362  0.54254  0.25068  1.0000
  N   N29       1.0  0.46384  0.53744  0.25064  1.0000
  C   C110      1.0  0.49008  0.56275  0.25073  1.0000
  C   C111      1.0  0.51072  0.56274  0.25084  1.0000
  C   C112      1.0  0.51716  0.54253  0.25087  1.0000
  C   C113      1.0  0.42053  0.47927  0.25097  1.0000
  C   C114      1.0  0.40200  0.49013  0.25096  1.0000
  C   C115      1.0  0.40202  0.51171  0.25094  1.0000
  C   C116      1.0  0.42056  0.52254  0.25087  1.0000
  C   C117      1.0  0.52204  0.58072  0.25089  1.0000
  C   C118      1.0  0.51120  0.59926  0.25081  1.0000
  C   C119      1.0  0.48962  0.59926  0.25072  1.0000
  C   C120      1.0  0.47877  0.58073  0.25068  1.0000
  N   N30       1.0  0.52896  0.50087  0.25078  1.0000
  C   C121      1.0  0.54204  0.51764  0.25091  1.0000
  N   N31       1.0  0.53694  0.53742  0.25100  1.0000
  C   C122      1.0  0.56224  0.51119  0.25090  1.0000
  C   C123      1.0  0.56224  0.49055  0.25077  1.0000
  C   C124      1.0  0.54203  0.48410  0.25068  1.0000
  C   C125      1.0  0.58021  0.47923  0.25077  1.0000
  C   C126      1.0  0.59875  0.49008  0.25089  1.0000
  C   C127      1.0  0.59875  0.51167  0.25097  1.0000
  C   C128      1.0  0.58021  0.52251  0.25098  1.0000
  N   N32       1.0  0.53692  0.46431  0.25054  1.0000
  H   H25       1.0  0.53656  0.42126  0.25055  1.0000
  O   O25       1.0  0.52012  0.38684  0.25065  1.0000
  O   O26       1.0  0.48060  0.38685  0.25080  1.0000
  H   H26       1.0  0.46417  0.42127  0.25088  1.0000
  H   H27       1.0  0.42075  0.46470  0.25099  1.0000
  O   O27       1.0  0.38635  0.48117  0.25097  1.0000
  O   O28       1.0  0.38638  0.52069  0.25099  1.0000
  H   H28       1.0  0.42081  0.53711  0.25084  1.0000
  H   H29       1.0  0.53660  0.58048  0.25096  1.0000
  O   O29       1.0  0.52018  0.61490  0.25080  1.0000
  O   O30       1.0  0.48066  0.61491  0.25067  1.0000
  H   H30       1.0  0.46421  0.58050  0.25063  1.0000
  H   H31       1.0  0.57998  0.46467  0.25070  1.0000
  O   O31       1.0  0.61439  0.48111  0.25094  1.0000
  O   O32       1.0  0.61439  0.52064  0.25104  1.0000
  H   H32       1.0  0.57997  0.53707  0.25105  1.0000
  Ni  Ni4       1.0  0.50038  0.50087  0.25072  1.0000
  C   C129      1.0  0.07496  0.32496  0.94218  1.0000
  C   C130      1.0  0.07109  0.32114  0.91279  1.0000
  C   C131      1.0  0.08183  0.33199  0.89121  1.0000
  C   C132      1.0  0.09649  0.34671  0.89890  1.0000
  C   C133      1.0  0.09985  0.35001  0.92820  1.0000
  C   C134      1.0  0.08959  0.33963  0.94884  1.0000
  C   C135      1.0  0.09648  0.34649  0.97550  1.0000
  N   N33       1.0  0.11135  0.36146  0.97180  1.0000
  C   C136      1.0  0.11315  0.36336  0.94196  1.0000
  N   N34       1.0  0.12553  0.37588  0.92728  1.0000
  C   C137      1.0  0.13798  0.38832  0.94196  1.0000
  N   N35       1.0  0.13987  0.39012  0.97181  1.0000
  C   C138      1.0  0.15481  0.40503  0.97552  1.0000
  C   C139      1.0  0.16164  0.41196  0.94887  1.0000
  C   C140      1.0  0.15129  0.40167  0.92822  1.0000
  N   N36       1.0  0.13990  0.39009  0.02899  1.0000
  C   C141      1.0  0.15485  0.40498  0.02530  1.0000
  N   N37       1.0  0.16221  0.41231  0.00010  1.0000
  C   C142      1.0  0.16170  0.41188  0.05196  1.0000
  C   C143      1.0  0.15132  0.40161  0.07260  1.0000
  C   C144      1.0  0.13799  0.38829  0.05883  1.0000
  C   C145      1.0  0.15461  0.40504  0.89893  1.0000
  C   C146      1.0  0.16930  0.41974  0.89126  1.0000
  C   C147      1.0  0.18009  0.43052  0.91285  1.0000
  C   C148      1.0  0.17628  0.42662  0.94223  1.0000
  C   C149      1.0  0.15463  0.40496  0.10189  1.0000
  C   C150      1.0  0.16935  0.41962  0.10959  1.0000
  C   C151      1.0  0.18018  0.43037  0.08801  1.0000
  C   C152      1.0  0.17636  0.42651  0.05863  1.0000
  N   N38       1.0  0.11131  0.36150  0.02898  1.0000
  C   C153      1.0  0.11310  0.36341  0.05882  1.0000
  N   N39       1.0  0.12549  0.37591  0.07351  1.0000
  C   C154      1.0  0.09978  0.35008  0.07258  1.0000
  C   C155      1.0  0.08953  0.33968  0.05193  1.0000
  C   C156      1.0  0.09644  0.34652  0.02527  1.0000
  C   C157      1.0  0.07488  0.32503  0.05860  1.0000
  C   C158      1.0  0.07098  0.32125  0.08798  1.0000
  C   C159      1.0  0.08173  0.33209  0.10957  1.0000
  C   C160      1.0  0.09641  0.34679  0.10187  1.0000
  N   N40       1.0  0.08918  0.33911  0.00010  1.0000
  H   H33       1.0  0.06783  0.31776  0.95698  1.0000
  O   O33       1.0  0.05879  0.30882  0.90612  1.0000
  O   O34       1.0  0.07847  0.32867  0.86660  1.0000
  H   H34       1.0  0.10385  0.35415  0.88458  1.0000
  H   H35       1.0  0.14720  0.39765  0.88459  1.0000
  O   O35       1.0  0.17264  0.42309  0.86665  1.0000
  O   O36       1.0  0.19237  0.44285  0.90620  1.0000
  H   H36       1.0  0.18344  0.43377  0.95704  1.0000
  H   H37       1.0  0.14719  0.39759  0.11621  1.0000
  O   O37       1.0  0.17268  0.42295  0.13421  1.0000
  O   O38       1.0  0.19251  0.44266  0.09469  1.0000
  H   H38       1.0  0.18355  0.43365  0.04384  1.0000
  H   H39       1.0  0.06776  0.31783  0.04380  1.0000
  O   O39       1.0  0.05866  0.30896  0.09466  1.0000
  O   O40       1.0  0.07837  0.32878  0.13418  1.0000
  H   H40       1.0  0.10378  0.35423  0.11619  1.0000
  Ni  Ni5       1.0  0.12563  0.37577  0.00010  1.0000
  C   C161      1.0  0.67613  0.07521  0.05866  1.0000
  C   C162      1.0  0.68001  0.07140  0.08804  1.0000
  C   C163      1.0  0.66927  0.08223  0.10963  1.0000
  C   C164      1.0  0.65459  0.09694  0.10195  1.0000
  C   C165      1.0  0.65122  0.10024  0.07266  1.0000
  C   C166      1.0  0.66149  0.08987  0.05201  1.0000
  C   C167      1.0  0.65459  0.09673  0.02536  1.0000
  N   N41       1.0  0.63971  0.11169  0.02907  1.0000
  C   C168      1.0  0.63790  0.11358  0.05891  1.0000
  N   N42       1.0  0.62552  0.12608  0.07360  1.0000
  C   C169      1.0  0.61305  0.13851  0.05892  1.0000
  N   N43       1.0  0.61116  0.14031  0.02908  1.0000
  C   C170      1.0  0.59621  0.15521  0.02538  1.0000
  C   C171      1.0  0.58937  0.16212  0.05203  1.0000
  C   C172      1.0  0.59973  0.15184  0.07268  1.0000
  N   N44       1.0  0.61112  0.14029  0.97190  1.0000
  C   C173      1.0  0.59615  0.15517  0.97560  1.0000
  N   N45       1.0  0.58879  0.16248  0.00010  1.0000
  C   C174      1.0  0.58930  0.16207  0.94895  1.0000
  C   C175      1.0  0.59968  0.15181  0.92830  1.0000
  C   C176      1.0  0.61303  0.13850  0.94205  1.0000
  C   C177      1.0  0.59641  0.15520  0.10197  1.0000
  C   C178      1.0  0.58171  0.16988  0.10966  1.0000
  C   C179      1.0  0.57091  0.18065  0.08807  1.0000
  C   C180      1.0  0.57472  0.17677  0.05869  1.0000
  C   C181      1.0  0.59637  0.15516  0.89901  1.0000
  C   C182      1.0  0.58163  0.16980  0.89132  1.0000
  C   C183      1.0  0.57079  0.18054  0.91291  1.0000
  C   C184      1.0  0.57462  0.17668  0.94228  1.0000
  N   N46       1.0  0.63974  0.11173  0.97189  1.0000
  C   C185      1.0  0.63794  0.11365  0.94205  1.0000
  N   N47       1.0  0.62554  0.12613  0.92737  1.0000
  C   C186      1.0  0.65127  0.10033  0.92828  1.0000
  C   C187      1.0  0.66154  0.08994  0.94892  1.0000
  C   C188      1.0  0.65462  0.09677  0.97558  1.0000
  C   C189      1.0  0.67619  0.07531  0.94224  1.0000
  C   C190      1.0  0.68009  0.07154  0.91285  1.0000
  C   C191      1.0  0.66933  0.08237  0.89128  1.0000
  C   C192      1.0  0.65464  0.09705  0.89899  1.0000
  N   N48       1.0  0.66189  0.08937  0.00010  1.0000
  H   H41       1.0  0.68326  0.06803  0.04386  1.0000
  O   O41       1.0  0.69232  0.05909  0.09471  1.0000
  O   O42       1.0  0.67263  0.07891  0.13425  1.0000
  H   H42       1.0  0.64722  0.10437  0.11628  1.0000
  H   H43       1.0  0.60383  0.14782  0.11630  1.0000
  O   O43       1.0  0.57838  0.17322  0.13427  1.0000
  O   O44       1.0  0.55862  0.19298  0.09473  1.0000
  H   H44       1.0  0.56754  0.18391  0.04388  1.0000
  H   H45       1.0  0.60380  0.14780  0.88468  1.0000
  O   O45       1.0  0.57829  0.17313  0.86671  1.0000
  O   O46       1.0  0.55845  0.19281  0.90624  1.0000
  H   H46       1.0  0.56742  0.18381  0.95708  1.0000
  H   H47       1.0  0.68333  0.06811  0.95703  1.0000
  O   O47       1.0  0.69242  0.05926  0.90617  1.0000
  O   O48       1.0  0.67269  0.07907  0.86666  1.0000
  H   H48       1.0  0.64726  0.10448  0.88467  1.0000
  Ni  Ni6       1.0  0.62541  0.12598  0.00010  1.0000
  C   C193      1.0  0.92610  0.67655  0.05860  1.0000
  C   C194      1.0  0.92991  0.68043  0.08797  1.0000
  C   C195      1.0  0.91908  0.66969  0.10957  1.0000
  C   C196      1.0  0.90437  0.65501  0.10188  1.0000
  C   C197      1.0  0.90106  0.65164  0.07259  1.0000
  C   C198      1.0  0.91144  0.66191  0.05194  1.0000
  C   C199      1.0  0.90457  0.65501  0.02529  1.0000
  N   N49       1.0  0.88961  0.64013  0.02900  1.0000
  C   C200      1.0  0.88772  0.63833  0.05884  1.0000
  N   N50       1.0  0.87522  0.62594  0.07353  1.0000
  C   C201      1.0  0.86278  0.61348  0.05886  1.0000
  N   N51       1.0  0.86098  0.61158  0.02901  1.0000
  C   C202      1.0  0.84608  0.59663  0.02531  1.0000
  C   C203      1.0  0.83916  0.58980  0.05197  1.0000
  C   C204      1.0  0.84945  0.60016  0.07261  1.0000
  N   N52       1.0  0.86100  0.61155  0.97183  1.0000
  C   C205      1.0  0.84612  0.59658  0.97554  1.0000
  N   N53       1.0  0.83880  0.58922  0.00010  1.0000
  C   C206      1.0  0.83921  0.58972  0.94888  1.0000
  C   C207      1.0  0.84947  0.60010  0.92824  1.0000
  C   C208      1.0  0.86278  0.61345  0.94199  1.0000
  C   C209      1.0  0.84609  0.59684  0.10191  1.0000
  C   C210      1.0  0.83141  0.58214  0.10959  1.0000
  C   C211      1.0  0.82063  0.57134  0.08800  1.0000
  C   C212      1.0  0.82451  0.57515  0.05863  1.0000
  C   C213      1.0  0.84612  0.59679  0.89894  1.0000
  C   C214      1.0  0.83147  0.58206  0.89126  1.0000
  C   C215      1.0  0.82073  0.57122  0.91284  1.0000
  C   C216      1.0  0.82460  0.57505  0.94222  1.0000
  N   N54       1.0  0.88956  0.64016  0.97182  1.0000
  C   C217      1.0  0.88764  0.63836  0.94198  1.0000
  N   N55       1.0  0.87516  0.62596  0.92731  1.0000
  C   C218      1.0  0.90097  0.65169  0.92821  1.0000
  C   C219      1.0  0.91136  0.66196  0.94885  1.0000
  C   C220      1.0  0.90453  0.65504  0.97551  1.0000
  C   C221      1.0  0.92599  0.67661  0.94217  1.0000
  C   C222      1.0  0.92977  0.68051  0.91278  1.0000
  C   C223      1.0  0.91893  0.66974  0.89121  1.0000
  C   C224      1.0  0.90425  0.65505  0.89892  1.0000
  N   N56       1.0  0.91194  0.66231  0.00010  1.0000
  H   H49       1.0  0.93328  0.68368  0.04379  1.0000
  O   O49       1.0  0.94223  0.69273  0.09464  1.0000
  O   O50       1.0  0.92241  0.67305  0.13418  1.0000
  H   H50       1.0  0.89694  0.64764  0.11621  1.0000
  H   H51       1.0  0.85347  0.60426  0.11624  1.0000
  O   O51       1.0  0.82806  0.57881  0.13420  1.0000
  O   O52       1.0  0.80830  0.55905  0.09467  1.0000
  H   H52       1.0  0.81737  0.56797  0.04382  1.0000
  H   H53       1.0  0.85348  0.60423  0.88462  1.0000
  O   O53       1.0  0.82814  0.57871  0.86664  1.0000
  O   O54       1.0  0.80846  0.55888  0.90617  1.0000
  H   H54       1.0  0.81746  0.56785  0.95702  1.0000
  H   H55       1.0  0.93319  0.68374  0.95696  1.0000
  O   O55       1.0  0.94205  0.69284  0.90610  1.0000
  O   O56       1.0  0.92223  0.67311  0.86659  1.0000
  H   H56       1.0  0.89681  0.64768  0.88460  1.0000
  Ni  Ni7       1.0  0.87531  0.62583  0.00010  1.0000
  C   C225      1.0  0.42622  0.82511  0.94227  1.0000
  C   C226      1.0  0.43004  0.82123  0.91289  1.0000
  C   C227      1.0  0.41920  0.83197  0.89130  1.0000
  C   C228      1.0  0.40448  0.84663  0.89898  1.0000
  C   C229      1.0  0.40117  0.84999  0.92827  1.0000
  C   C230      1.0  0.41155  0.83974  0.94892  1.0000
  C   C231      1.0  0.40468  0.84663  0.97557  1.0000
  N   N57       1.0  0.38971  0.86149  0.97186  1.0000
  C   C232      1.0  0.38782  0.86330  0.94202  1.0000
  N   N58       1.0  0.37531  0.87567  0.92734  1.0000
  C   C233      1.0  0.36286  0.88812  0.94201  1.0000
  N   N59       1.0  0.36105  0.89001  0.97185  1.0000
  C   C234      1.0  0.34614  0.90495  0.97555  1.0000
  C   C235      1.0  0.33922  0.91178  0.94890  1.0000
  C   C236      1.0  0.34951  0.90143  0.92825  1.0000
  N   N60       1.0  0.36107  0.89005  0.02903  1.0000
  C   C237      1.0  0.34618  0.90500  0.02533  1.0000
  N   N61       1.0  0.33886  0.91235  0.00010  1.0000
  C   C238      1.0  0.33927  0.91185  0.05198  1.0000
  C   C239      1.0  0.34954  0.90147  0.07263  1.0000
  C   C240      1.0  0.36286  0.88814  0.05888  1.0000
  C   C241      1.0  0.34615  0.90474  0.89896  1.0000
  C   C242      1.0  0.33146  0.91943  0.89128  1.0000
  C   C243      1.0  0.32067  0.93022  0.91286  1.0000
  C   C244      1.0  0.32456  0.92641  0.94224  1.0000
  C   C245      1.0  0.34618  0.90478  0.10192  1.0000
  C   C246      1.0  0.33152  0.91950  0.10961  1.0000
  C   C247      1.0  0.32077  0.93033  0.08802  1.0000
  C   C248      1.0  0.32464  0.92651  0.05865  1.0000
  N   N62       1.0  0.38966  0.86146  0.02904  1.0000
  C   C249      1.0  0.38774  0.86325  0.05889  1.0000
  N   N63       1.0  0.37524  0.87564  0.07356  1.0000
  C   C250      1.0  0.40107  0.84994  0.07265  1.0000
  C   C251      1.0  0.41147  0.83968  0.05202  1.0000
  C   C252      1.0  0.40463  0.84660  0.02535  1.0000
  C   C253      1.0  0.42612  0.82505  0.05869  1.0000
  C   C254      1.0  0.42989  0.82115  0.08808  1.0000
  C   C255      1.0  0.41905  0.83190  0.10965  1.0000
  C   C256      1.0  0.40435  0.84657  0.10195  1.0000
  N   N64       1.0  0.41205  0.83933  0.00010  1.0000
  H   H57       1.0  0.43342  0.81799  0.95708  1.0000
  O   O57       1.0  0.44237  0.80894  0.90623  1.0000
  O   O58       1.0  0.42253  0.82861  0.86669  1.0000
  H   H58       1.0  0.39705  0.85399  0.88465  1.0000
  H   H59       1.0  0.35354  0.89734  0.88463  1.0000
  O   O59       1.0  0.32811  0.92276  0.86666  1.0000
  O   O60       1.0  0.30834  0.94250  0.90620  1.0000
  H   H60       1.0  0.31741  0.93358  0.95705  1.0000
  H   H61       1.0  0.35354  0.89735  0.11625  1.0000
  O   O61       1.0  0.32819  0.92284  0.13422  1.0000
  O   O62       1.0  0.30849  0.94266  0.09469  1.0000
  H   H62       1.0  0.31750  0.93370  0.04385  1.0000
  H   H63       1.0  0.43332  0.81792  0.04390  1.0000
  O   O63       1.0  0.44218  0.80883  0.09477  1.0000
  O   O64       1.0  0.42235  0.82854  0.13427  1.0000
  H   H64       1.0  0.39691  0.85394  0.11626  1.0000
  Ni  Ni8       1.0  0.37540  0.87577  0.00010  1.0000
  C   C257      1.0  0.17591  0.57501  0.55865  1.0000
  C   C258      1.0  0.17979  0.57120  0.58803  1.0000
  C   C259      1.0  0.16903  0.58203  0.60961  1.0000
  C   C260      1.0  0.15436  0.59674  0.60192  1.0000
  C   C261      1.0  0.15100  0.60004  0.57262  1.0000
  C   C262      1.0  0.16127  0.58966  0.55198  1.0000
  C   C263      1.0  0.15437  0.59652  0.52532  1.0000
  N   N65       1.0  0.13949  0.61147  0.52902  1.0000
  C   C264      1.0  0.13768  0.61337  0.55886  1.0000
  N   N66       1.0  0.12529  0.62587  0.57354  1.0000
  C   C265      1.0  0.11283  0.63830  0.55886  1.0000
  N   N67       1.0  0.11094  0.64010  0.52901  1.0000
  C   C266      1.0  0.09599  0.65499  0.52530  1.0000
  C   C267      1.0  0.08915  0.66191  0.55195  1.0000
  C   C268      1.0  0.09950  0.65164  0.57260  1.0000
  N   N68       1.0  0.11092  0.64007  0.47183  1.0000
  C   C269      1.0  0.09595  0.65494  0.47552  1.0000
  N   N69       1.0  0.08859  0.66226  0.50040  1.0000
  C   C270      1.0  0.08910  0.66184  0.44886  1.0000
  C   C271      1.0  0.09949  0.65158  0.42822  1.0000
  C   C272      1.0  0.11283  0.63827  0.44199  1.0000
  C   C273      1.0  0.09618  0.65500  0.60189  1.0000
  C   C274      1.0  0.08148  0.66968  0.60956  1.0000
  C   C275      1.0  0.07068  0.68045  0.58796  1.0000
  C   C276      1.0  0.07450  0.67656  0.55859  1.0000
  C   C277      1.0  0.09618  0.65493  0.39893  1.0000
  C   C278      1.0  0.08145  0.66956  0.39123  1.0000
  C   C279      1.0  0.07060  0.68030  0.41280  1.0000
  C   C280      1.0  0.07442  0.67645  0.44218  1.0000
  N   N70       1.0  0.13954  0.61151  0.47184  1.0000
  C   C281      1.0  0.13775  0.61342  0.44200  1.0000
  N   N71       1.0  0.12535  0.62590  0.42731  1.0000
  C   C282      1.0  0.15108  0.60010  0.42825  1.0000
  C   C283      1.0  0.16134  0.58972  0.44889  1.0000
  C   C284      1.0  0.15441  0.59655  0.47555  1.0000
  C   C285      1.0  0.17600  0.57508  0.44222  1.0000
  C   C286      1.0  0.17990  0.57130  0.41284  1.0000
  C   C287      1.0  0.16914  0.58213  0.39126  1.0000
  C   C288      1.0  0.15445  0.59681  0.39895  1.0000
  N   N72       1.0  0.16169  0.58915  0.50044  1.0000
  H   H65       1.0  0.18304  0.56782  0.54385  1.0000
  O   O65       1.0  0.19209  0.55889  0.59470  1.0000
  O   O66       1.0  0.17239  0.57871  0.63423  1.0000
  H   H66       1.0  0.14699  0.60417  0.61624  1.0000
  H   H67       1.0  0.10359  0.64762  0.61623  1.0000
  O   O67       1.0  0.07814  0.67303  0.63417  1.0000
  O   O68       1.0  0.05839  0.69277  0.59462  1.0000
  H   H68       1.0  0.06732  0.68370  0.54378  1.0000
  H   H69       1.0  0.10362  0.64756  0.38461  1.0000
  O   O69       1.0  0.07811  0.67289  0.36661  1.0000
  O   O70       1.0  0.05826  0.69258  0.40612  1.0000
  H   H70       1.0  0.06722  0.68358  0.45698  1.0000
  H   H71       1.0  0.18313  0.56789  0.45702  1.0000
  O   O71       1.0  0.19224  0.55902  0.40617  1.0000
  O   O72       1.0  0.17251  0.57883  0.36664  1.0000
  H   H72       1.0  0.14708  0.60425  0.38463  1.0000
  Ni  Ni9       1.0  0.12520  0.62576  0.50043  1.0000
  C   C289      1.0  0.42605  0.17660  0.44227  1.0000
  C   C290      1.0  0.42993  0.18041  0.41289  1.0000
  C   C291      1.0  0.41919  0.16957  0.39130  1.0000
  C   C292      1.0  0.40453  0.15485  0.39899  1.0000
  C   C293      1.0  0.40116  0.15154  0.42828  1.0000
  C   C294      1.0  0.41142  0.16193  0.44893  1.0000
  C   C295      1.0  0.40453  0.15506  0.47558  1.0000
  N   N73       1.0  0.38966  0.14009  0.47187  1.0000
  C   C296      1.0  0.38786  0.13819  0.44203  1.0000
  N   N74       1.0  0.37548  0.12568  0.42734  1.0000
  C   C297      1.0  0.36303  0.11324  0.44201  1.0000
  N   N75       1.0  0.36113  0.11143  0.47186  1.0000
  C   C298      1.0  0.34620  0.09652  0.47556  1.0000
  C   C299      1.0  0.33937  0.08960  0.44890  1.0000
  C   C300      1.0  0.34972  0.09989  0.42826  1.0000
  N   N76       1.0  0.36110  0.11145  0.52904  1.0000
  C   C301      1.0  0.34614  0.09656  0.52534  1.0000
  N   N77       1.0  0.33879  0.08924  0.50045  1.0000
  C   C302      1.0  0.33929  0.08966  0.55199  1.0000
  C   C303      1.0  0.34967  0.09993  0.57264  1.0000
  C   C304      1.0  0.36301  0.11325  0.55888  1.0000
  C   C305      1.0  0.34640  0.09653  0.39897  1.0000
  C   C306      1.0  0.33171  0.08183  0.39128  1.0000
  C   C307      1.0  0.32092  0.07105  0.41287  1.0000
  C   C308      1.0  0.32473  0.07494  0.44225  1.0000
  C   C309      1.0  0.34636  0.09657  0.60193  1.0000
  C   C310      1.0  0.33163  0.08192  0.60962  1.0000
  C   C311      1.0  0.32080  0.07117  0.58803  1.0000
  C   C312      1.0  0.32463  0.07503  0.55865  1.0000
  N   N78       1.0  0.38969  0.14004  0.52905  1.0000
  C   C313      1.0  0.38790  0.13812  0.55889  1.0000
  N   N79       1.0  0.37551  0.12563  0.57357  1.0000
  C   C314      1.0  0.40122  0.15146  0.57266  1.0000
  C   C315      1.0  0.41147  0.16185  0.55202  1.0000
  C   C316      1.0  0.40456  0.15502  0.52536  1.0000
  C   C317      1.0  0.42611  0.17650  0.55870  1.0000
  C   C318      1.0  0.43001  0.18028  0.58808  1.0000
  C   C319      1.0  0.41926  0.16944  0.60966  1.0000
  C   C320      1.0  0.40458  0.15474  0.60195  1.0000
  N   N80       1.0  0.41183  0.16243  0.50047  1.0000
  H   H73       1.0  0.43318  0.18379  0.45708  1.0000
  O   O73       1.0  0.44222  0.19274  0.40623  1.0000
  O   O74       1.0  0.42255  0.17290  0.36669  1.0000
  H   H74       1.0  0.39717  0.14741  0.38466  1.0000
  H   H75       1.0  0.35381  0.10391  0.38463  1.0000
  O   O75       1.0  0.32838  0.07849  0.36667  1.0000
  O   O76       1.0  0.30864  0.05871  0.40621  1.0000
  H   H76       1.0  0.31756  0.06779  0.45705  1.0000
  H   H77       1.0  0.35379  0.10394  0.61626  1.0000
  O   O77       1.0  0.32830  0.07858  0.63423  1.0000
  O   O78       1.0  0.30847  0.05888  0.59470  1.0000
  H   H78       1.0  0.31744  0.06789  0.54385  1.0000
  H   H79       1.0  0.43324  0.18371  0.54391  1.0000
  O   O79       1.0  0.44233  0.19257  0.59477  1.0000
  O   O80       1.0  0.42262  0.17274  0.63428  1.0000
  H   H80       1.0  0.39721  0.14730  0.61627  1.0000
  Ni  Ni10      1.0  0.37537  0.12578  0.50045  1.0000
  C   C321      1.0  0.92641  0.32532  0.44217  1.0000
  C   C322      1.0  0.93023  0.32145  0.41279  1.0000
  C   C323      1.0  0.91938  0.33219  0.39120  1.0000
  C   C324      1.0  0.90466  0.34685  0.39890  1.0000
  C   C325      1.0  0.90136  0.35020  0.42819  1.0000
  C   C326      1.0  0.91174  0.33995  0.44883  1.0000
  C   C327      1.0  0.90488  0.34683  0.47549  1.0000
  N   N81       1.0  0.88990  0.36170  0.47179  1.0000
  C   C328      1.0  0.88800  0.36351  0.44195  1.0000
  N   N82       1.0  0.87549  0.37588  0.42727  1.0000
  C   C329      1.0  0.86305  0.38833  0.44195  1.0000
  N   N83       1.0  0.86125  0.39022  0.47180  1.0000
  C   C330      1.0  0.84634  0.40515  0.47551  1.0000
  C   C331      1.0  0.83941  0.41199  0.44886  1.0000
  C   C332      1.0  0.84970  0.40164  0.42821  1.0000
  N   N84       1.0  0.86128  0.39024  0.52898  1.0000
  C   C333      1.0  0.84639  0.40519  0.52529  1.0000
  N   N85       1.0  0.83906  0.41255  0.50040  1.0000
  C   C334      1.0  0.83948  0.41204  0.55195  1.0000
  C   C335      1.0  0.84975  0.40166  0.57259  1.0000
  C   C336      1.0  0.86307  0.38833  0.55882  1.0000
  C   C337      1.0  0.84633  0.40496  0.39892  1.0000
  C   C338      1.0  0.83164  0.41965  0.39124  1.0000
  C   C339      1.0  0.82086  0.43043  0.41284  1.0000
  C   C340      1.0  0.82475  0.42662  0.44221  1.0000
  C   C341      1.0  0.84640  0.40497  0.60188  1.0000
  C   C342      1.0  0.83175  0.41969  0.60958  1.0000
  C   C343      1.0  0.82099  0.43052  0.58800  1.0000
  C   C344      1.0  0.82485  0.42670  0.55862  1.0000
  N   N86       1.0  0.88986  0.36166  0.52897  1.0000
  C   C345      1.0  0.88795  0.36344  0.55881  1.0000
  N   N87       1.0  0.87546  0.37583  0.57350  1.0000
  C   C346      1.0  0.90129  0.35013  0.57257  1.0000
  C   C347      1.0  0.91168  0.33988  0.55193  1.0000
  C   C348      1.0  0.90484  0.34679  0.52527  1.0000
  C   C349      1.0  0.92633  0.32524  0.55859  1.0000
  C   C350      1.0  0.93011  0.32134  0.58798  1.0000
  C   C351      1.0  0.91927  0.33208  0.60956  1.0000
  C   C352      1.0  0.90457  0.34676  0.60186  1.0000
  N   N88       1.0  0.91225  0.33953  0.50038  1.0000
  H   H81       1.0  0.93361  0.31819  0.45697  1.0000
  O   O81       1.0  0.94255  0.30916  0.40612  1.0000
  O   O82       1.0  0.92270  0.32883  0.36659  1.0000
  H   H82       1.0  0.89722  0.35421  0.38457  1.0000
  H   H83       1.0  0.85372  0.39756  0.38458  1.0000
  O   O83       1.0  0.82829  0.42298  0.36663  1.0000
  O   O84       1.0  0.80852  0.44271  0.40619  1.0000
  H   H84       1.0  0.81760  0.43379  0.45702  1.0000
  H   H85       1.0  0.85377  0.39753  0.61620  1.0000
  O   O85       1.0  0.82841  0.42302  0.63419  1.0000
  O   O86       1.0  0.80871  0.44285  0.59468  1.0000
  H   H86       1.0  0.81771  0.43389  0.54382  1.0000
  H   H87       1.0  0.93353  0.31811  0.54380  1.0000
  O   O87       1.0  0.94240  0.30902  0.59465  1.0000
  O   O88       1.0  0.92258  0.32872  0.63418  1.0000
  H   H88       1.0  0.89713  0.35412  0.61618  1.0000
  Ni  Ni11      1.0  0.87560  0.37598  0.50038  1.0000
  C   C353      1.0  0.57473  0.82516  0.44227  1.0000
  C   C354      1.0  0.57085  0.82134  0.41290  1.0000
  C   C355      1.0  0.58159  0.83218  0.39130  1.0000
  C   C356      1.0  0.59625  0.84690  0.39899  1.0000
  C   C357      1.0  0.59962  0.85021  0.42828  1.0000
  C   C358      1.0  0.58936  0.83983  0.44893  1.0000
  C   C359      1.0  0.59626  0.84670  0.47558  1.0000
  N   N89       1.0  0.61113  0.86167  0.47187  1.0000
  C   C360      1.0  0.61293  0.86357  0.44202  1.0000
  N   N90       1.0  0.62530  0.87608  0.42734  1.0000
  C   C361      1.0  0.63775  0.88852  0.44201  1.0000
  N   N91       1.0  0.63965  0.89033  0.47186  1.0000
  C   C362      1.0  0.65459  0.90524  0.47556  1.0000
  C   C363      1.0  0.66141  0.91216  0.44890  1.0000
  C   C364      1.0  0.65106  0.90187  0.42826  1.0000
  N   N92       1.0  0.63969  0.89031  0.52904  1.0000
  C   C365      1.0  0.65464  0.90520  0.52533  1.0000
  N   N93       1.0  0.66199  0.91252  0.50044  1.0000
  C   C366      1.0  0.66149  0.91211  0.55199  1.0000
  C   C367      1.0  0.65112  0.90184  0.57263  1.0000
  C   C368      1.0  0.63778  0.88852  0.55888  1.0000
  C   C369      1.0  0.65437  0.90523  0.39896  1.0000
  C   C370      1.0  0.66906  0.91993  0.39128  1.0000
  C   C371      1.0  0.67986  0.93071  0.41287  1.0000
  C   C372      1.0  0.67605  0.92682  0.44224  1.0000
  C   C373      1.0  0.65443  0.90520  0.60193  1.0000
  C   C374      1.0  0.66915  0.91985  0.60961  1.0000
  C   C375      1.0  0.67998  0.93060  0.58803  1.0000
  C   C376      1.0  0.67616  0.92674  0.55865  1.0000
  N   N94       1.0  0.61110  0.86172  0.52905  1.0000
  C   C377      1.0  0.61289  0.86364  0.55889  1.0000
  N   N95       1.0  0.62528  0.87613  0.57356  1.0000
  C   C378      1.0  0.59958  0.85030  0.57266  1.0000
  C   C379      1.0  0.58932  0.83991  0.55202  1.0000
  C   C380      1.0  0.59623  0.84674  0.52536  1.0000
  C   C381      1.0  0.57468  0.82526  0.55870  1.0000
  C   C382      1.0  0.57079  0.82148  0.58809  1.0000
  C   C383      1.0  0.58154  0.83232  0.60966  1.0000
  C   C384      1.0  0.59622  0.84702  0.60195  1.0000
  N   N96       1.0  0.58896  0.83933  0.50047  1.0000
  H   H89       1.0  0.56761  0.81797  0.45708  1.0000
  O   O89       1.0  0.55856  0.80901  0.40623  1.0000
  O   O90       1.0  0.57823  0.82886  0.36669  1.0000
  H   H90       1.0  0.60361  0.85434  0.38466  1.0000
  H   H91       1.0  0.64696  0.89784  0.38463  1.0000
  O   O91       1.0  0.67239  0.92328  0.36667  1.0000
  O   O92       1.0  0.69213  0.94305  0.40620  1.0000
  H   H92       1.0  0.68322  0.93398  0.45705  1.0000
  H   H93       1.0  0.64700  0.89783  0.61625  1.0000
  O   O93       1.0  0.67250  0.92319  0.63423  1.0000
  O   O94       1.0  0.69231  0.94289  0.59470  1.0000
  H   H94       1.0  0.68334  0.93388  0.54385  1.0000
  H   H95       1.0  0.56755  0.81805  0.54391  1.0000
  O   O95       1.0  0.55846  0.80919  0.59477  1.0000
  O   O96       1.0  0.57818  0.82902  0.63428  1.0000
  H   H96       1.0  0.60358  0.85446  0.61627  1.0000
  Ni  Ni12      1.0  0.62541  0.87598  0.50045  1.0000
  C   C385      1.0  0.98984  0.21292  0.25037  1.0000
  C   C386      1.0  0.01119  0.21292  0.25037  1.0000
  C   C387      1.0  0.02188  0.19445  0.25036  1.0000
  C   C388      1.0  0.01125  0.17592  0.25034  1.0000
  C   C389      1.0  0.98984  0.17589  0.25034  1.0000
  C   C390      1.0  0.97919  0.19441  0.25035  1.0000
  O   O97       1.0  0.97935  0.23105  0.25038  1.0000
  O   O98       1.0  0.02163  0.23107  0.25039  1.0000
  H   H97       1.0  0.03768  0.19448  0.25036  1.0000
  O   O99       1.0  0.02182  0.15780  0.25033  1.0000
  O   O100      1.0  0.97930  0.15775  0.25032  1.0000
  H   H98       1.0  0.96339  0.19441  0.25035  1.0000
  Cu  Cu1       1.0  0.00010  0.13606  0.25031  1.0000
  C   C391      1.0  0.78838  0.99031  0.25045  1.0000
  C   C392      1.0  0.78838  0.01165  0.25045  1.0000
  C   C393      1.0  0.80685  0.02235  0.25047  1.0000
  C   C394      1.0  0.82538  0.01172  0.25049  1.0000
  C   C395      1.0  0.82540  0.99031  0.25049  1.0000
  C   C396      1.0  0.80688  0.97965  0.25047  1.0000
  O   O101      1.0  0.77025  0.97981  0.25043  1.0000
  O   O102      1.0  0.77023  0.02210  0.25043  1.0000
  H   H99       1.0  0.80682  0.03815  0.25047  1.0000
  O   O103      1.0  0.84349  0.02229  0.25050  1.0000
  O   O104      1.0  0.84354  0.97976  0.25050  1.0000
  H   H100      1.0  0.80689  0.96385  0.25047  1.0000
  Cu  Cu2       1.0  0.86523  0.00107  0.25052  1.0000
  C   C397      1.0  0.01102  0.78881  0.25034  1.0000
  C   C398      1.0  0.98967  0.78880  0.25034  1.0000
  C   C399      1.0  0.97897  0.80728  0.25033  1.0000
  C   C400      1.0  0.98960  0.82581  0.25032  1.0000
  C   C401      1.0  0.01101  0.82584  0.25032  1.0000
  C   C402      1.0  0.02166  0.80733  0.25033  1.0000
  O   O105      1.0  0.02151  0.77069  0.25035  1.0000
  O   O106      1.0  0.97923  0.77065  0.25036  1.0000
  H   H101      1.0  0.96317  0.80724  0.25034  1.0000
  O   O107      1.0  0.97903  0.84393  0.25031  1.0000
  O   O108      1.0  0.02155  0.84399  0.25031  1.0000
  H   H102      1.0  0.03747  0.80734  0.25033  1.0000
  Cu  Cu3       1.0  0.00010  0.86567  0.25030  1.0000
  C   C403      1.0  0.21243  0.01145  0.25044  1.0000
  C   C404      1.0  0.21243  0.99010  0.25044  1.0000
  C   C405      1.0  0.19395  0.97942  0.25046  1.0000
  C   C406      1.0  0.17543  0.99005  0.25048  1.0000
  C   C407      1.0  0.17541  0.01146  0.25048  1.0000
  C   C408      1.0  0.19393  0.02211  0.25046  1.0000
  O   O109      1.0  0.23056  0.02194  0.25042  1.0000
  O   O110      1.0  0.23057  0.97966  0.25042  1.0000
  H   H103      1.0  0.19398  0.96361  0.25046  1.0000
  O   O111      1.0  0.15731  0.97948  0.25049  1.0000
  O   O112      1.0  0.15727  0.02201  0.25050  1.0000
  H   H104      1.0  0.19393  0.03791  0.25046  1.0000
  Cu  Cu4       1.0  0.13558  0.00010  0.25052  1.0000
  C   C409      1.0  0.98958  0.78882  0.75033  1.0000
  C   C410      1.0  0.01093  0.78880  0.75033  1.0000
  C   C411      1.0  0.02164  0.80727  0.75033  1.0000
  C   C412      1.0  0.01104  0.82581  0.75032  1.0000
  C   C413      1.0  0.98963  0.82585  0.75032  1.0000
  C   C414      1.0  0.97895  0.80735  0.75032  1.0000
  O   O113      1.0  0.97907  0.77071  0.75033  1.0000
  O   O114      1.0  0.02135  0.77064  0.75034  1.0000
  H   H105      1.0  0.03744  0.80721  0.75033  1.0000
  O   O115      1.0  0.02162  0.84391  0.75032  1.0000
  O   O116      1.0  0.97910  0.84401  0.75032  1.0000
  H   H106      1.0  0.96315  0.80737  0.75032  1.0000
  Cu  Cu5       1.0  0.00010  0.86567  0.75032  1.0000
  C   C415      1.0  0.21240  0.99012  0.75046  1.0000
  C   C416      1.0  0.21242  0.01147  0.75046  1.0000
  C   C417      1.0  0.19396  0.02218  0.75048  1.0000
  C   C418      1.0  0.17542  0.01157  0.75050  1.0000
  C   C419      1.0  0.17538  0.99015  0.75050  1.0000
  C   C420      1.0  0.19388  0.97948  0.75048  1.0000
  O   O117      1.0  0.23052  0.97961  0.75043  1.0000
  O   O118      1.0  0.23058  0.02189  0.75043  1.0000
  H   H107      1.0  0.19401  0.03798  0.75048  1.0000
  O   O119      1.0  0.15732  0.02215  0.75053  1.0000
  O   O120      1.0  0.15722  0.97963  0.75053  1.0000
  H   H108      1.0  0.19386  0.96368  0.75048  1.0000
  Cu  Cu6       1.0  0.13556  0.00010  0.75055  1.0000
  C   C421      1.0  0.98986  0.21293  0.75036  1.0000
  C   C422      1.0  0.01121  0.21293  0.75036  1.0000
  C   C423      1.0  0.02190  0.19445  0.75035  1.0000
  C   C424      1.0  0.01127  0.17592  0.75035  1.0000
  C   C425      1.0  0.98986  0.17590  0.75035  1.0000
  C   C426      1.0  0.97921  0.19442  0.75036  1.0000
  O   O121      1.0  0.97938  0.23106  0.75037  1.0000
  O   O122      1.0  0.02166  0.23108  0.75036  1.0000
  H   H109      1.0  0.03770  0.19448  0.75035  1.0000
  O   O123      1.0  0.02183  0.15780  0.75034  1.0000
  O   O124      1.0  0.97931  0.15776  0.75034  1.0000
  H   H110      1.0  0.96341  0.19441  0.75036  1.0000
  Cu  Cu7       1.0  0.00010  0.13606  0.75033  1.0000
  C   C427      1.0  0.78834  0.99040  0.75043  1.0000
  C   C428      1.0  0.78835  0.01175  0.75043  1.0000
  C   C429      1.0  0.80684  0.02243  0.75046  1.0000
  C   C430      1.0  0.82535  0.01180  0.75048  1.0000
  C   C431      1.0  0.82537  0.99038  0.75048  1.0000
  C   C432      1.0  0.80685  0.97974  0.75045  1.0000
  O   O125      1.0  0.77021  0.97991  0.75040  1.0000
  O   O126      1.0  0.77021  0.02220  0.75040  1.0000
  H   H111      1.0  0.80681  0.03823  0.75046  1.0000
  O   O127      1.0  0.84348  0.02235  0.75051  1.0000
  O   O128      1.0  0.84350  0.97983  0.75050  1.0000
  H   H112      1.0  0.80684  0.96393  0.75045  1.0000
  Cu  Cu8       1.0  0.86520  0.00113  0.75054  1.0000
  C   C433      1.0  0.48994  0.71293  0.75041  1.0000
  C   C434      1.0  0.51128  0.71292  0.75042  1.0000
  C   C435      1.0  0.52197  0.69443  0.75032  1.0000
  C   C436      1.0  0.51133  0.67591  0.75021  1.0000
  C   C437      1.0  0.48992  0.67590  0.75021  1.0000
  C   C438      1.0  0.47928  0.69442  0.75031  1.0000
  O   O129      1.0  0.47946  0.73106  0.75051  1.0000
  O   O130      1.0  0.52174  0.73106  0.75052  1.0000
  H   H113      1.0  0.53777  0.69446  0.75032  1.0000
  O   O131      1.0  0.52188  0.65779  0.75012  1.0000
  O   O132      1.0  0.47936  0.65776  0.75011  1.0000
  H   H114      1.0  0.46348  0.69443  0.75031  1.0000
  Cu  Cu9       1.0  0.50065  0.63606  0.74999  1.0000
  C   C439      1.0  0.28837  0.49040  0.75041  1.0000
  C   C440      1.0  0.28838  0.51175  0.75041  1.0000
  C   C441      1.0  0.30686  0.52244  0.75036  1.0000
  C   C442      1.0  0.32538  0.51180  0.75031  1.0000
  C   C443      1.0  0.32539  0.49038  0.75031  1.0000
  C   C444      1.0  0.30687  0.47974  0.75036  1.0000
  O   O133      1.0  0.27024  0.47992  0.75046  1.0000
  O   O134      1.0  0.27024  0.52221  0.75046  1.0000
  H   H115      1.0  0.30684  0.53824  0.75036  1.0000
  O   O135      1.0  0.34351  0.52236  0.75026  1.0000
  O   O136      1.0  0.34353  0.47983  0.75026  1.0000
  H   H116      1.0  0.30687  0.46394  0.75036  1.0000
  Cu  Cu10      1.0  0.36523  0.50113  0.75020  1.0000
  C   C445      1.0  0.51090  0.28880  0.75040  1.0000
  C   C446      1.0  0.48955  0.28881  0.75040  1.0000
  C   C447      1.0  0.47887  0.30729  0.75030  1.0000
  C   C448      1.0  0.48951  0.32582  0.75020  1.0000
  C   C449      1.0  0.51092  0.32583  0.75020  1.0000
  C   C450      1.0  0.52156  0.30731  0.75030  1.0000
  O   O137      1.0  0.52138  0.27067  0.75050  1.0000
  O   O138      1.0  0.47910  0.27067  0.75050  1.0000
  H   H117      1.0  0.46307  0.30726  0.75031  1.0000
  O   O139      1.0  0.47895  0.34394  0.75011  1.0000
  O   O140      1.0  0.52147  0.34397  0.75010  1.0000
  H   H118      1.0  0.53736  0.30731  0.75030  1.0000
  Cu  Cu11      1.0  0.50018  0.36567  0.74999  1.0000
  C   C451      1.0  0.71244  0.51137  0.75037  1.0000
  C   C452      1.0  0.71242  0.49002  0.75037  1.0000
  C   C453      1.0  0.69394  0.47934  0.75032  1.0000
  C   C454      1.0  0.67542  0.48998  0.75028  1.0000
  C   C455      1.0  0.67542  0.51139  0.75028  1.0000
  C   C456      1.0  0.69394  0.52203  0.75033  1.0000
  O   O141      1.0  0.73057  0.52185  0.75042  1.0000
  O   O142      1.0  0.73056  0.47956  0.75042  1.0000
  H   H119      1.0  0.69397  0.46354  0.75032  1.0000
  O   O143      1.0  0.65730  0.47942  0.75023  1.0000
  O   O144      1.0  0.65728  0.52195  0.75023  1.0000
  H   H120      1.0  0.69395  0.53784  0.75033  1.0000
  Cu  Cu12      1.0  0.63558  0.50065  0.75017  1.0000
  C   C457      1.0  0.48968  0.28883  0.25055  1.0000
  C   C458      1.0  0.51102  0.28882  0.25055  1.0000
  C   C459      1.0  0.52173  0.30729  0.25059  1.0000
  C   C460      1.0  0.51111  0.32582  0.25062  1.0000
  C   C461      1.0  0.48970  0.32586  0.25061  1.0000
  C   C462      1.0  0.47904  0.30734  0.25058  1.0000
  O   O145      1.0  0.47918  0.27070  0.25051  1.0000
  O   O146      1.0  0.52146  0.27066  0.25052  1.0000
  H   H121      1.0  0.53753  0.30724  0.25059  1.0000
  O   O147      1.0  0.52169  0.34393  0.25065  1.0000
  O   O148      1.0  0.47917  0.34401  0.25065  1.0000
  H   H122      1.0  0.46324  0.30736  0.25058  1.0000
  Cu  Cu13      1.0  0.50049  0.36569  0.25069  1.0000
  C   C463      1.0  0.71240  0.49018  0.25056  1.0000
  C   C464      1.0  0.71242  0.51153  0.25056  1.0000
  C   C465      1.0  0.69395  0.52224  0.25064  1.0000
  C   C466      1.0  0.67542  0.51163  0.25072  1.0000
  C   C467      1.0  0.67537  0.49021  0.25072  1.0000
  C   C468      1.0  0.69388  0.47954  0.25064  1.0000
  O   O149      1.0  0.73051  0.47968  0.25048  1.0000
  O   O150      1.0  0.73057  0.52196  0.25048  1.0000
  H   H123      1.0  0.69400  0.53804  0.25064  1.0000
  O   O151      1.0  0.65731  0.52221  0.25080  1.0000
  O   O152      1.0  0.65722  0.47968  0.25080  1.0000
  H   H124      1.0  0.69386  0.46374  0.25064  1.0000
  Cu  Cu14      1.0  0.63555  0.50101  0.25090  1.0000
  C   C469      1.0  0.48978  0.71293  0.25057  1.0000
  C   C470      1.0  0.51113  0.71294  0.25057  1.0000
  C   C471      1.0  0.52183  0.69446  0.25060  1.0000
  C   C472      1.0  0.51120  0.67593  0.25063  1.0000
  C   C473      1.0  0.48979  0.67590  0.25063  1.0000
  C   C474      1.0  0.47914  0.69441  0.25060  1.0000
  O   O153      1.0  0.47929  0.73106  0.25054  1.0000
  O   O154      1.0  0.52157  0.73109  0.25054  1.0000
  H   H125      1.0  0.53763  0.69450  0.25060  1.0000
  O   O155      1.0  0.52177  0.65781  0.25066  1.0000
  O   O156      1.0  0.47925  0.65775  0.25067  1.0000
  H   H126      1.0  0.46334  0.69440  0.25061  1.0000
  Cu  Cu15      1.0  0.50056  0.63607  0.25070  1.0000
  C   C475      1.0  0.28835  0.49032  0.25055  1.0000
  C   C476      1.0  0.28835  0.51166  0.25055  1.0000
  C   C477      1.0  0.30683  0.52236  0.25063  1.0000
  C   C478      1.0  0.32535  0.51173  0.25071  1.0000
  C   C479      1.0  0.32537  0.49031  0.25071  1.0000
  C   C480      1.0  0.30686  0.47966  0.25063  1.0000
  O   O157      1.0  0.27022  0.47982  0.25047  1.0000
  O   O158      1.0  0.27020  0.52211  0.25047  1.0000
  H   H127      1.0  0.30679  0.53816  0.25063  1.0000
  O   O159      1.0  0.34347  0.52229  0.25079  1.0000
  O   O160      1.0  0.34351  0.47977  0.25079  1.0000
  H   H128      1.0  0.30686  0.46386  0.25063  1.0000
  Cu  Cu16      1.0  0.36520  0.50108  0.25089  1.0000
  C   C481      1.0  0.01416  0.26454  0.20178  1.0000
  C   C482      1.0  0.02483  0.27520  0.22314  1.0000
  C   C483      1.0  0.03942  0.28979  0.21537  1.0000
  C   C484      1.0  0.04338  0.29374  0.18622  1.0000
  C   C485      1.0  0.03269  0.28306  0.16477  1.0000
  C   C486      1.0  0.01810  0.26847  0.17262  1.0000
  O   O161      1.0  0.99990  0.25023  0.20940  1.0000
  O   O162      1.0  0.02097  0.27135  0.25173  1.0000
  H   H129      1.0  0.04730  0.29767  0.23122  1.0000
  O   O163      1.0  0.05773  0.30809  0.17868  1.0000
  O   O164      1.0  0.03650  0.28686  0.13609  1.0000
  H   H130      1.0  0.01020  0.26058  0.15681  1.0000
  Cu  Cu17      1.0  0.05800  0.30836  0.13572  1.0000
  C   C487      1.0  0.73677  0.01463  0.20184  1.0000
  C   C488      1.0  0.72611  0.02530  0.22320  1.0000
  C   C489      1.0  0.71154  0.03990  0.21542  1.0000
  C   C490      1.0  0.70758  0.04386  0.18627  1.0000
  C   C491      1.0  0.71826  0.03316  0.16483  1.0000
  C   C492      1.0  0.73284  0.01857  0.17268  1.0000
  O   O165      1.0  0.75107  0.00010  0.20946  1.0000
  O   O166      1.0  0.72997  0.02144  0.25179  1.0000
  H   H131      1.0  0.70366  0.04778  0.23127  1.0000
  O   O167      1.0  0.69325  0.05821  0.17873  1.0000
  O   O168      1.0  0.71446  0.03697  0.13614  1.0000
  H   H132      1.0  0.74073  0.01067  0.15686  1.0000
  Cu  Cu18      1.0  0.69298  0.05848  0.13578  1.0000
  C   C493      1.0  0.98669  0.73720  0.20176  1.0000
  C   C494      1.0  0.97603  0.72654  0.22312  1.0000
  C   C495      1.0  0.96143  0.71196  0.21535  1.0000
  C   C496      1.0  0.95747  0.70801  0.18620  1.0000
  C   C497      1.0  0.96816  0.71869  0.16475  1.0000
  C   C498      1.0  0.98275  0.73327  0.17260  1.0000
  O   O169      1.0  0.00101  0.75151  0.20938  1.0000
  O   O170      1.0  0.97989  0.73040  0.25171  1.0000
  H   H133      1.0  0.95355  0.70408  0.23120  1.0000
  O   O171      1.0  0.94312  0.69367  0.17866  1.0000
  O   O172      1.0  0.96435  0.71489  0.13607  1.0000
  H   H134      1.0  0.99065  0.74116  0.15678  1.0000
  Cu  Cu19      1.0  0.94284  0.69340  0.13571  1.0000
  C   C499      1.0  0.26403  0.98712  0.20182  1.0000
  C   C500      1.0  0.27469  0.97645  0.22318  1.0000
  C   C501      1.0  0.28927  0.96185  0.21541  1.0000
  C   C502      1.0  0.29322  0.95789  0.18626  1.0000
  C   C503      1.0  0.28254  0.96859  0.16481  1.0000
  C   C504      1.0  0.26796  0.98318  0.17266  1.0000
  O   O173      1.0  0.24973  0.00144  0.20945  1.0000
  O   O174      1.0  0.27084  0.98031  0.25177  1.0000
  H   H135      1.0  0.29714  0.95397  0.23125  1.0000
  O   O175      1.0  0.30756  0.94354  0.17872  1.0000
  O   O176      1.0  0.28634  0.96478  0.13613  1.0000
  H   H136      1.0  0.26008  0.99108  0.15685  1.0000
  Cu  Cu20      1.0  0.30783  0.94327  0.13576  1.0000
  C   C505      1.0  0.02463  0.72653  0.27768  1.0000
  C   C506      1.0  0.01396  0.73721  0.29901  1.0000
  C   C507      1.0  0.01782  0.73331  0.32819  1.0000
  C   C508      1.0  0.03237  0.71871  0.33610  1.0000
  C   C509      1.0  0.04309  0.70798  0.31472  1.0000
  C   C510      1.0  0.03919  0.71192  0.28555  1.0000
  O   O177      1.0  0.02084  0.73036  0.24905  1.0000
  O   O178      1.0  0.99990  0.75153  0.29129  1.0000
  H   H137      1.0  0.00991  0.74123  0.34394  1.0000
  O   O179      1.0  0.03612  0.71492  0.36479  1.0000
  O   O180      1.0  0.05740  0.69361  0.32234  1.0000
  H   H138      1.0  0.04709  0.70401  0.26976  1.0000
  Cu  Cu21      1.0  0.05756  0.69341  0.36533  1.0000
  C   C511      1.0  0.27471  0.02506  0.27775  1.0000
  C   C512      1.0  0.26402  0.01438  0.29908  1.0000
  C   C513      1.0  0.26793  0.01824  0.32826  1.0000
  C   C514      1.0  0.28253  0.03279  0.33617  1.0000
  C   C515      1.0  0.29326  0.04351  0.31480  1.0000
  C   C516      1.0  0.28931  0.03961  0.28562  1.0000
  O   O181      1.0  0.27088  0.02127  0.24912  1.0000
  O   O182      1.0  0.24970  0.00010  0.29136  1.0000
  H   H139      1.0  0.26000  0.01032  0.34401  1.0000
  O   O183      1.0  0.28632  0.03654  0.36486  1.0000
  O   O184      1.0  0.30763  0.05782  0.32241  1.0000
  H   H140      1.0  0.29723  0.04751  0.26983  1.0000
  Cu  Cu22      1.0  0.30783  0.05798  0.36541  1.0000
  C   C517      1.0  0.97622  0.27521  0.27769  1.0000
  C   C518      1.0  0.98689  0.26453  0.29903  1.0000
  C   C519      1.0  0.98302  0.26843  0.32821  1.0000
  C   C520      1.0  0.96847  0.28303  0.33611  1.0000
  C   C521      1.0  0.95775  0.29375  0.31473  1.0000
  C   C522      1.0  0.96166  0.28981  0.28555  1.0000
  O   O185      1.0  0.98002  0.27137  0.24907  1.0000
  O   O186      1.0  0.00117  0.25021  0.29132  1.0000
  H   H141      1.0  0.99094  0.26051  0.34397  1.0000
  O   O187      1.0  0.96471  0.28682  0.36480  1.0000
  O   O188      1.0  0.94343  0.30812  0.32233  1.0000
  H   H142      1.0  0.95376  0.29772  0.26976  1.0000
  Cu  Cu23      1.0  0.94326  0.30832  0.36533  1.0000
  C   C523      1.0  0.72609  0.97670  0.27776  1.0000
  C   C524      1.0  0.73677  0.98737  0.29909  1.0000
  C   C525      1.0  0.73286  0.98351  0.32827  1.0000
  C   C526      1.0  0.71826  0.96897  0.33618  1.0000
  C   C527      1.0  0.70753  0.95825  0.31480  1.0000
  C   C528      1.0  0.71148  0.96215  0.28562  1.0000
  O   O189      1.0  0.72992  0.98049  0.24913  1.0000
  O   O190      1.0  0.75110  0.00164  0.29138  1.0000
  H   H143      1.0  0.74079  0.99143  0.34403  1.0000
  O   O191      1.0  0.71446  0.96522  0.36487  1.0000
  O   O192      1.0  0.69316  0.94394  0.32241  1.0000
  H   H144      1.0  0.70357  0.95425  0.26983  1.0000
  Cu  Cu24      1.0  0.69295  0.94378  0.36541  1.0000
  C   C529      1.0  0.97588  0.72657  0.77765  1.0000
  C   C530      1.0  0.98657  0.73725  0.79899  1.0000
  C   C531      1.0  0.98267  0.73338  0.82816  1.0000
  C   C532      1.0  0.96808  0.71882  0.83608  1.0000
  C   C533      1.0  0.95735  0.70810  0.81470  1.0000
  C   C534      1.0  0.96129  0.71201  0.78552  1.0000
  O   O193      1.0  0.97971  0.73037  0.74902  1.0000
  O   O194      1.0  0.00010  0.75153  0.79126  1.0000
  H   H145      1.0  0.99059  0.74130  0.84392  1.0000
  O   O195      1.0  0.96430  0.71507  0.86477  1.0000
  O   O196      1.0  0.94300  0.69377  0.82231  1.0000
  H   H146      1.0  0.95338  0.70410  0.76974  1.0000
  Cu  Cu25      1.0  0.94280  0.69361  0.86531  1.0000
  C   C535      1.0  0.27464  0.97641  0.77775  1.0000
  C   C536      1.0  0.26397  0.98710  0.79909  1.0000
  C   C537      1.0  0.26784  0.98319  0.82827  1.0000
  C   C538      1.0  0.28239  0.96860  0.83618  1.0000
  C   C539      1.0  0.29311  0.95787  0.81479  1.0000
  C   C540      1.0  0.28920  0.96181  0.78562  1.0000
  O   O197      1.0  0.27084  0.98024  0.74913  1.0000
  O   O198      1.0  0.24970  0.00141  0.79138  1.0000
  H   H147      1.0  0.25992  0.99112  0.84403  1.0000
  O   O199      1.0  0.28615  0.96481  0.86486  1.0000
  O   O200      1.0  0.30743  0.94351  0.82240  1.0000
  H   H148      1.0  0.29710  0.95390  0.76983  1.0000
  Cu  Cu26      1.0  0.30760  0.94331  0.86540  1.0000
  C   C541      1.0  0.01420  0.26452  0.79896  1.0000
  C   C542      1.0  0.02488  0.27519  0.77761  1.0000
  C   C543      1.0  0.03948  0.28975  0.78539  1.0000
  C   C544      1.0  0.04345  0.29369  0.81455  1.0000
  C   C545      1.0  0.03276  0.28300  0.83599  1.0000
  C   C546      1.0  0.01815  0.26843  0.82813  1.0000
  O   O201      1.0  0.99990  0.25023  0.79133  1.0000
  O   O202      1.0  0.02100  0.27135  0.74902  1.0000
  H   H149      1.0  0.04737  0.29763  0.76955  1.0000
  O   O203      1.0  0.05782  0.30801  0.82209  1.0000
  O   O204      1.0  0.03658  0.28678  0.86467  1.0000
  H   H150      1.0  0.01025  0.26054  0.84394  1.0000
  Cu  Cu27      1.0  0.05810  0.30825  0.86505  1.0000
  C   C547      1.0  0.73677  0.01474  0.79901  1.0000
  C   C548      1.0  0.72610  0.02542  0.77766  1.0000
  C   C549      1.0  0.71154  0.04002  0.78544  1.0000
  C   C550      1.0  0.70761  0.04399  0.81460  1.0000
  C   C551      1.0  0.71829  0.03329  0.83604  1.0000
  C   C552      1.0  0.73286  0.01868  0.82817  1.0000
  O   O205      1.0  0.75106  0.00010  0.79137  1.0000
  O   O206      1.0  0.72994  0.02155  0.74907  1.0000
  H   H151      1.0  0.70366  0.04791  0.76960  1.0000
  O   O207      1.0  0.69329  0.05835  0.82215  1.0000
  O   O208      1.0  0.71451  0.03711  0.86472  1.0000
  H   H152      1.0  0.74075  0.01078  0.84398  1.0000
  Cu  Cu28      1.0  0.69304  0.05863  0.86510  1.0000
  C   C553      1.0  0.97622  0.27519  0.72306  1.0000
  C   C554      1.0  0.98689  0.26451  0.70171  1.0000
  C   C555      1.0  0.98299  0.26839  0.67254  1.0000
  C   C556      1.0  0.96841  0.28297  0.66464  1.0000
  C   C557      1.0  0.95770  0.29369  0.68603  1.0000
  C   C558      1.0  0.96164  0.28977  0.71520  1.0000
  O   O209      1.0  0.98005  0.27138  0.75168  1.0000
  O   O210      1.0  0.00119  0.25021  0.70941  1.0000
  H   H153      1.0  0.99090  0.26047  0.65677  1.0000
  O   O211      1.0  0.96463  0.28674  0.63596  1.0000
  O   O212      1.0  0.94336  0.30803  0.67844  1.0000
  H   H154      1.0  0.95374  0.29767  0.73100  1.0000
  Cu  Cu29      1.0  0.94315  0.30821  0.63544  1.0000
  C   C559      1.0  0.72609  0.97677  0.72310  1.0000
  C   C560      1.0  0.73677  0.98744  0.70175  1.0000
  C   C561      1.0  0.73288  0.98354  0.67258  1.0000
  C   C562      1.0  0.71831  0.96896  0.66468  1.0000
  C   C563      1.0  0.70758  0.95824  0.68607  1.0000
  C   C564      1.0  0.71151  0.96218  0.71524  1.0000
  O   O213      1.0  0.72991  0.98059  0.75172  1.0000
  O   O214      1.0  0.75107  0.00173  0.70946  1.0000
  H   H155      1.0  0.74080  0.99145  0.65682  1.0000
  O   O215      1.0  0.71453  0.96518  0.63600  1.0000
  O   O216      1.0  0.69324  0.94390  0.67848  1.0000
  H   H156      1.0  0.70361  0.95428  0.73104  1.0000
  Cu  Cu30      1.0  0.69306  0.94370  0.63548  1.0000
  C   C565      1.0  0.01387  0.73720  0.70173  1.0000
  C   C566      1.0  0.02453  0.72653  0.72309  1.0000
  C   C567      1.0  0.03912  0.71195  0.71533  1.0000
  C   C568      1.0  0.04310  0.70800  0.68618  1.0000
  C   C569      1.0  0.03241  0.71870  0.66473  1.0000
  C   C570      1.0  0.01782  0.73328  0.67257  1.0000
  O   O217      1.0  0.99990  0.75151  0.70935  1.0000
  O   O218      1.0  0.02066  0.73038  0.75168  1.0000
  H   H157      1.0  0.04700  0.70407  0.73118  1.0000
  O   O219      1.0  0.05744  0.69367  0.67865  1.0000
  O   O220      1.0  0.03623  0.71490  0.63605  1.0000
  H   H158      1.0  0.00993  0.74117  0.65675  1.0000
  Cu  Cu31      1.0  0.05774  0.69341  0.63569  1.0000
  C   C571      1.0  0.26403  0.01440  0.70183  1.0000
  C   C572      1.0  0.27471  0.02506  0.72319  1.0000
  C   C573      1.0  0.28930  0.03965  0.71542  1.0000
  C   C574      1.0  0.29325  0.04360  0.68627  1.0000
  C   C575      1.0  0.28256  0.03292  0.66482  1.0000
  C   C576      1.0  0.26797  0.01834  0.67267  1.0000
  O   O221      1.0  0.24972  0.00010  0.70945  1.0000
  O   O222      1.0  0.27085  0.02120  0.75178  1.0000
  H   H159      1.0  0.29718  0.04752  0.73126  1.0000
  O   O223      1.0  0.30760  0.05794  0.67873  1.0000
  O   O224      1.0  0.28636  0.03672  0.63614  1.0000
  H   H160      1.0  0.26007  0.01044  0.65685  1.0000
  Cu  Cu32      1.0  0.30787  0.05822  0.63577  1.0000
  C   C577      1.0  0.51421  0.76459  0.70195  1.0000
  C   C578      1.0  0.52488  0.77526  0.72329  1.0000
  C   C579      1.0  0.53943  0.78988  0.71551  1.0000
  C   C580      1.0  0.54334  0.79387  0.68635  1.0000
  C   C581      1.0  0.53264  0.78317  0.66491  1.0000
  C   C582      1.0  0.51809  0.76855  0.67278  1.0000
  O   O225      1.0  0.49993  0.75024  0.70958  1.0000
  O   O226      1.0  0.52107  0.77137  0.75189  1.0000
  H   H161      1.0  0.54732  0.79776  0.73134  1.0000
  O   O227      1.0  0.55765  0.80825  0.67880  1.0000
  O   O228      1.0  0.53640  0.78701  0.63623  1.0000
  H   H162      1.0  0.51019  0.76065  0.65697  1.0000
  Cu  Cu33      1.0  0.55786  0.80855  0.63584  1.0000
  C   C583      1.0  0.23673  0.51467  0.70189  1.0000
  C   C584      1.0  0.22606  0.52535  0.72324  1.0000
  C   C585      1.0  0.21145  0.53990  0.71545  1.0000
  C   C586      1.0  0.20746  0.54381  0.68629  1.0000
  C   C587      1.0  0.21815  0.53311  0.66486  1.0000
  C   C588      1.0  0.23276  0.51856  0.67273  1.0000
  O   O229      1.0  0.25107  0.50039  0.70953  1.0000
  O   O230      1.0  0.22995  0.52154  0.75183  1.0000
  H   H163      1.0  0.20357  0.54779  0.73128  1.0000
  O   O231      1.0  0.19309  0.55812  0.67874  1.0000
  O   O232      1.0  0.21432  0.53687  0.63617  1.0000
  H   H164      1.0  0.24066  0.51066  0.65692  1.0000
  Cu  Cu34      1.0  0.19278  0.55833  0.63578  1.0000
  C   C589      1.0  0.48662  0.23715  0.70193  1.0000
  C   C590      1.0  0.47595  0.22648  0.72328  1.0000
  C   C591      1.0  0.46139  0.21187  0.71550  1.0000
  C   C592      1.0  0.45748  0.20788  0.68634  1.0000
  C   C593      1.0  0.46818  0.21857  0.66491  1.0000
  C   C594      1.0  0.48273  0.23319  0.67277  1.0000
  O   O233      1.0  0.50090  0.25149  0.70957  1.0000
  O   O234      1.0  0.47977  0.23037  0.75188  1.0000
  H   H165      1.0  0.45351  0.20399  0.73134  1.0000
  O   O235      1.0  0.44317  0.19351  0.67879  1.0000
  O   O236      1.0  0.46441  0.21474  0.63622  1.0000
  H   H166      1.0  0.49063  0.24108  0.65696  1.0000
  Cu  Cu35      1.0  0.44295  0.19320  0.63583  1.0000
  C   C595      1.0  0.76408  0.48709  0.70185  1.0000
  C   C596      1.0  0.77475  0.47641  0.72320  1.0000
  C   C597      1.0  0.78936  0.46186  0.71541  1.0000
  C   C598      1.0  0.79334  0.45794  0.68626  1.0000
  C   C599      1.0  0.78266  0.46864  0.66482  1.0000
  C   C600      1.0  0.76804  0.48320  0.67268  1.0000
  O   O237      1.0  0.74975  0.50137  0.70948  1.0000
  O   O238      1.0  0.77086  0.48023  0.75179  1.0000
  H   H167      1.0  0.79724  0.45397  0.73125  1.0000
  O   O239      1.0  0.80771  0.44363  0.67871  1.0000
  O   O240      1.0  0.78649  0.46487  0.63613  1.0000
  H   H168      1.0  0.76015  0.49110  0.65687  1.0000
  Cu  Cu36      1.0  0.80802  0.44341  0.63575  1.0000
  C   C601      1.0  0.52456  0.22658  0.77784  1.0000
  C   C602      1.0  0.51390  0.23726  0.79919  1.0000
  C   C603      1.0  0.51781  0.23339  0.82836  1.0000
  C   C604      1.0  0.53240  0.21883  0.83625  1.0000
  C   C605      1.0  0.54311  0.20810  0.81486  1.0000
  C   C606      1.0  0.53916  0.21201  0.78569  1.0000
  O   O241      1.0  0.52072  0.23038  0.74922  1.0000
  O   O242      1.0  0.49959  0.25154  0.79149  1.0000
  H   H169      1.0  0.50990  0.24131  0.84412  1.0000
  O   O243      1.0  0.53620  0.21507  0.86494  1.0000
  O   O244      1.0  0.55747  0.19377  0.82246  1.0000
  H   H170      1.0  0.54705  0.20411  0.76989  1.0000
  Cu  Cu37      1.0  0.55769  0.19361  0.86545  1.0000
  C   C607      1.0  0.77466  0.52502  0.77776  1.0000
  C   C608      1.0  0.76399  0.51435  0.79911  1.0000
  C   C609      1.0  0.76786  0.51826  0.82828  1.0000
  C   C610      1.0  0.78243  0.53285  0.83618  1.0000
  C   C611      1.0  0.79315  0.54356  0.81479  1.0000
  C   C612      1.0  0.78924  0.53961  0.78562  1.0000
  O   O245      1.0  0.77086  0.52119  0.74914  1.0000
  O   O246      1.0  0.74970  0.50005  0.79140  1.0000
  H   H171      1.0  0.75994  0.51034  0.84404  1.0000
  O   O247      1.0  0.78619  0.53664  0.86486  1.0000
  O   O248      1.0  0.80749  0.55792  0.82239  1.0000
  H   H172      1.0  0.79714  0.54752  0.76982  1.0000
  Cu  Cu38      1.0  0.80766  0.55813  0.86539  1.0000
  C   C613      1.0  0.47627  0.77515  0.77785  1.0000
  C   C614      1.0  0.48694  0.76448  0.79920  1.0000
  C   C615      1.0  0.48302  0.76836  0.82837  1.0000
  C   C616      1.0  0.46843  0.78292  0.83626  1.0000
  C   C617      1.0  0.45772  0.79364  0.81486  1.0000
  C   C618      1.0  0.46168  0.78972  0.78569  1.0000
  O   O249      1.0  0.48012  0.77135  0.74923  1.0000
  O   O250      1.0  0.50125  0.75020  0.79151  1.0000
  H   H173      1.0  0.49093  0.76044  0.84414  1.0000
  O   O251      1.0  0.46462  0.78668  0.86494  1.0000
  O   O252      1.0  0.44336  0.80796  0.82245  1.0000
  H   H174      1.0  0.45378  0.79762  0.76989  1.0000
  Cu  Cu39      1.0  0.44313  0.80814  0.86544  1.0000
  C   C619      1.0  0.22615  0.47675  0.77779  1.0000
  C   C620      1.0  0.23682  0.48742  0.79914  1.0000
  C   C621      1.0  0.23294  0.48351  0.82831  1.0000
  C   C622      1.0  0.21838  0.46892  0.83621  1.0000
  C   C623      1.0  0.20765  0.45821  0.81481  1.0000
  C   C624      1.0  0.21157  0.46216  0.78565  1.0000
  O   O253      1.0  0.22995  0.48058  0.74917  1.0000
  O   O254      1.0  0.25111  0.50172  0.79144  1.0000
  H   H175      1.0  0.24087  0.49142  0.84408  1.0000
  O   O255      1.0  0.21461  0.46513  0.86489  1.0000
  O   O256      1.0  0.19332  0.44385  0.82241  1.0000
  H   H176      1.0  0.20367  0.45426  0.76985  1.0000
  Cu  Cu40      1.0  0.19314  0.44364  0.86541  1.0000
  C   C625      1.0  0.47603  0.22655  0.27780  1.0000
  C   C626      1.0  0.48671  0.23723  0.29914  1.0000
  C   C627      1.0  0.48283  0.23333  0.32831  1.0000
  C   C628      1.0  0.46826  0.21875  0.33622  1.0000
  C   C629      1.0  0.45754  0.20803  0.31483  1.0000
  C   C630      1.0  0.46146  0.21196  0.28566  1.0000
  O   O257      1.0  0.47983  0.23037  0.24917  1.0000
  O   O258      1.0  0.50100  0.25153  0.29142  1.0000
  H   H177      1.0  0.49075  0.24125  0.34407  1.0000
  O   O259      1.0  0.46450  0.21497  0.36490  1.0000
  O   O260      1.0  0.44320  0.19368  0.32244  1.0000
  H   H178      1.0  0.45355  0.20406  0.26987  1.0000
  Cu  Cu41      1.0  0.44303  0.19348  0.36544  1.0000
  C   C631      1.0  0.77467  0.47652  0.27776  1.0000
  C   C632      1.0  0.76401  0.48720  0.29910  1.0000
  C   C633      1.0  0.76791  0.48332  0.32828  1.0000
  C   C634      1.0  0.78248  0.46874  0.33618  1.0000
  C   C635      1.0  0.79319  0.45802  0.31479  1.0000
  C   C636      1.0  0.78925  0.46194  0.28562  1.0000
  O   O261      1.0  0.77085  0.48033  0.24914  1.0000
  O   O262      1.0  0.74971  0.50149  0.29140  1.0000
  H   H179      1.0  0.75999  0.49124  0.34404  1.0000
  O   O263      1.0  0.78627  0.46498  0.36486  1.0000
  O   O264      1.0  0.80754  0.44368  0.32239  1.0000
  H   H180      1.0  0.79715  0.45403  0.26982  1.0000
  Cu  Cu42      1.0  0.80774  0.44350  0.36539  1.0000
  C   C637      1.0  0.51408  0.76457  0.29910  1.0000
  C   C638      1.0  0.52475  0.77523  0.27775  1.0000
  C   C639      1.0  0.53933  0.78982  0.28552  1.0000
  C   C640      1.0  0.54328  0.79379  0.31467  1.0000
  C   C641      1.0  0.53259  0.78310  0.33612  1.0000
  C   C642      1.0  0.51801  0.76851  0.32826  1.0000
  O   O265      1.0  0.49977  0.75025  0.29148  1.0000
  O   O266      1.0  0.52089  0.77137  0.24916  1.0000
  H   H181      1.0  0.54721  0.79770  0.26967  1.0000
  O   O267      1.0  0.55762  0.80814  0.32221  1.0000
  O   O268      1.0  0.53639  0.78691  0.36480  1.0000
  H   H182      1.0  0.51011  0.76062  0.34408  1.0000
  Cu  Cu43      1.0  0.55789  0.80842  0.36516  1.0000
  C   C643      1.0  0.23672  0.51461  0.29903  1.0000
  C   C644      1.0  0.22606  0.52529  0.27768  1.0000
  C   C645      1.0  0.21148  0.53987  0.28545  1.0000
  C   C646      1.0  0.20751  0.54382  0.31460  1.0000
  C   C647      1.0  0.21820  0.53312  0.33605  1.0000
  C   C648      1.0  0.23278  0.51854  0.32819  1.0000
  O   O269      1.0  0.25104  0.50030  0.29141  1.0000
  O   O270      1.0  0.22993  0.52144  0.24909  1.0000
  H   H183      1.0  0.20360  0.54775  0.26961  1.0000
  O   O271      1.0  0.19317  0.55816  0.32215  1.0000
  O   O272      1.0  0.21439  0.53692  0.36473  1.0000
  H   H184      1.0  0.24067  0.51064  0.34401  1.0000
  Cu  Cu44      1.0  0.19289  0.55842  0.36510  1.0000
  C   C649      1.0  0.47610  0.77515  0.22319  1.0000
  C   C650      1.0  0.48677  0.76447  0.20185  1.0000
  C   C651      1.0  0.48285  0.76832  0.17268  1.0000
  C   C652      1.0  0.46825  0.78287  0.16477  1.0000
  C   C653      1.0  0.45754  0.79360  0.18615  1.0000
  C   C654      1.0  0.46150  0.78970  0.21533  1.0000
  O   O273      1.0  0.47994  0.77137  0.25182  1.0000
  O   O274      1.0  0.50109  0.75020  0.20957  1.0000
  H   H185      1.0  0.49077  0.76040  0.15692  1.0000
  O   O275      1.0  0.46445  0.78661  0.13608  1.0000
  O   O276      1.0  0.44317  0.80792  0.17854  1.0000
  H   H186      1.0  0.45359  0.79761  0.23112  1.0000
  Cu  Cu45      1.0  0.44295  0.80806  0.13555  1.0000
  C   C655      1.0  0.22614  0.47664  0.22312  1.0000
  C   C656      1.0  0.23682  0.48731  0.20178  1.0000
  C   C657      1.0  0.23296  0.48339  0.17261  1.0000
  C   C658      1.0  0.21841  0.46879  0.16470  1.0000
  C   C659      1.0  0.20768  0.45807  0.18608  1.0000
  C   C660      1.0  0.21158  0.46203  0.21525  1.0000
  O   O277      1.0  0.22992  0.48048  0.25174  1.0000
  O   O278      1.0  0.25109  0.50163  0.20950  1.0000
  H   H187      1.0  0.24089  0.49131  0.15685  1.0000
  O   O279      1.0  0.21467  0.46499  0.13601  1.0000
  O   O280      1.0  0.19337  0.44371  0.17847  1.0000
  H   H188      1.0  0.20367  0.45413  0.23104  1.0000
  Cu  Cu46      1.0  0.19322  0.44349  0.13547  1.0000
  C   C661      1.0  0.51401  0.23726  0.20189  1.0000
  C   C662      1.0  0.52468  0.22659  0.22324  1.0000
  C   C663      1.0  0.53929  0.21203  0.21546  1.0000
  C   C664      1.0  0.54328  0.20811  0.18631  1.0000
  C   C665      1.0  0.53259  0.21881  0.16487  1.0000
  C   C666      1.0  0.51797  0.23337  0.17273  1.0000
  O   O281      1.0  0.49967  0.25155  0.20952  1.0000
  O   O282      1.0  0.52079  0.23041  0.25183  1.0000
  H   H189      1.0  0.54717  0.20415  0.23130  1.0000
  O   O283      1.0  0.55765  0.19380  0.17876  1.0000
  O   O284      1.0  0.53642  0.21504  0.13618  1.0000
  H   H190      1.0  0.51008  0.24127  0.15691  1.0000
  Cu  Cu47      1.0  0.55795  0.19357  0.13581  1.0000
  C   C667      1.0  0.76397  0.51449  0.20184  1.0000
  C   C668      1.0  0.77465  0.52516  0.22319  1.0000
  C   C669      1.0  0.78922  0.53977  0.21541  1.0000
  C   C670      1.0  0.79315  0.54374  0.18625  1.0000
  C   C671      1.0  0.78244  0.53305  0.16482  1.0000
  C   C672      1.0  0.76788  0.51845  0.17268  1.0000
  O   O285      1.0  0.74968  0.50017  0.20948  1.0000
  O   O286      1.0  0.77083  0.52129  0.25179  1.0000
  H   H191      1.0  0.79711  0.54765  0.23125  1.0000
  O   O287      1.0  0.80747  0.55810  0.17870  1.0000
  O   O288      1.0  0.78622  0.53687  0.13613  1.0000
  H   H192      1.0  0.75998  0.51055  0.15687  1.0000
  Cu  Cu48      1.0  0.80770  0.55839  0.13575  1.0000
