data_image0
_chemical_formula_structural       Fe16C7NCNCNC3NCNC11NCNC7NHO2H2O2H2O2H2O2HNiC7NCNCNC3NCNC11NCNC7NHO2H2O2H2O2H2O2HNiC7NCNCNC3NCNC11NCNC7NHO2H2O2H2O2H2O2HNiC7NCNCNC3NCNC11NCNC7NHO2H2O2H2O2H2O2HNiC7NCNCNC3NCNC11NCNC7NHO2H2O2H2O2H2O2HNiC7NCNCNC3NCNC11NCNC7NHO2H2O2H2O2H2O2HNiC7NCNCNC3NCNC11NCNC7NHO2H2O2H2O2H2O2HNiC7NCNCNC3NCNC11NCNC7NHO2H2O2H2O2H2O2HNiC7NCNCNC3NCNC11NCNC7NHO2H2O2H2O2H2O2HNiC7NCNCNC3NCNC11NCNC7NHO2H2O2H2O2H2O2HNiC7NCNCNC3NCNC11NCNC7NHO2H2O2H2O2H2O2HNiC7NCNCNC3NCNC11NCNC7NHO2H2O2H2O2H2O2HNiC6O2HO2HCuC6O2HO2HCuC6O2HO2HCuC6O2HO2HCuC6O2HO2HCuC6O2HO2HCuC6O2HO2HCuC6O2HO2HCuC6O2HO2HCuC6O2HO2HCuC6O2HO2HCuC6O2HO2HCuC6O2HO2HCuC6O2HO2HCuC6O2HO2HCuC6O2HO2HCuC6O2HO2HCuC6O2HO2HCuC6O2HO2HCuC6O2HO2HCuC6O2HO2HCuC6O2HO2HCuC6O2HO2HCuC6O2HO2HCuC6O2HO2HCuC6O2HO2HCuC6O2HO2HCuC6O2HO2HCuC6O2HO2HCuC6O2HO2HCuC6O2HO2HCuC6O2HO2HCuC6O2HO2HCuC6O2HO2HCuC6O2HO2HCuC6O2HO2HCuC6O2HO2HCuC6O2HO2HCuC6O2HO2HCuC6O2HO2HCuC6O2HO2HCuC6O2HO2HCuC6O2HO2HCuC6O2HO2HCuC6O2HO2HCuC6O2HO2HCuC6O2HO2HCuC6O2HO2HCu
_chemical_formula_sum              "Fe16 C672 N96 H192 O288 Ni12 Cu48"
_cell_length_a       72.0953
_cell_length_b       72.0876
_cell_length_c       50.9745
_cell_angle_alpha    89.9999
_cell_angle_beta     89.9983
_cell_angle_gamma    89.993

_space_group_name_H-M_alt    "P 1"
_space_group_IT_number       1

loop_
  _space_group_symop_operation_xyz
  'x, y, z'

loop_
  _atom_site_type_symbol
  _atom_site_label
  _atom_site_symmetry_multiplicity
  _atom_site_fract_x
  _atom_site_fract_y
  _atom_site_fract_z
  _atom_site_occupancy
  Fe  Fe1       1.0  0.00010  0.25090  0.25027  1.0000
  Fe  Fe2       1.0  0.75023  0.00010  0.25033  1.0000
  Fe  Fe3       1.0  0.00010  0.75087  0.25034  1.0000
  Fe  Fe4       1.0  0.25020  0.00010  0.25027  1.0000
  Fe  Fe5       1.0  0.00010  0.75086  0.75034  1.0000
  Fe  Fe6       1.0  0.25021  0.00010  0.75028  1.0000
  Fe  Fe7       1.0  0.00010  0.25087  0.75026  1.0000
  Fe  Fe8       1.0  0.75024  0.00010  0.75030  1.0000
  Fe  Fe9       1.0  0.50026  0.75086  0.75033  1.0000
  Fe  Fe10      1.0  0.25024  0.50087  0.75027  1.0000
  Fe  Fe11      1.0  0.50019  0.25085  0.75029  1.0000
  Fe  Fe12      1.0  0.75020  0.50081  0.75040  1.0000
  Fe  Fe13      1.0  0.50014  0.25088  0.25032  1.0000
  Fe  Fe14      1.0  0.75020  0.50084  0.25035  1.0000
  Fe  Fe15      1.0  0.50030  0.75089  0.25031  1.0000
  Fe  Fe16      1.0  0.25023  0.50097  0.25027  1.0000
  C   C1        1.0  0.97857  0.92104  0.25057  1.0000
  C   C2        1.0  0.98941  0.90250  0.25051  1.0000
  C   C3        1.0  0.01099  0.90249  0.25041  1.0000
  C   C4        1.0  0.02184  0.92103  0.25036  1.0000
  C   C5        1.0  0.01053  0.93901  0.25042  1.0000
  C   C6        1.0  0.98989  0.93901  0.25054  1.0000
  C   C7        1.0  0.98344  0.95922  0.25057  1.0000
  N   N1        1.0  0.00010  0.97229  0.25047  1.0000
  C   C8        1.0  0.01698  0.95922  0.25038  1.0000
  N   N2        1.0  0.03677  0.96432  0.25025  1.0000
  C   C9        1.0  0.04187  0.98410  0.25027  1.0000
  N   N3        1.0  0.02880  0.00010  0.25036  1.0000
  C   C10       1.0  0.04187  0.01765  0.25039  1.0000
  C   C11       1.0  0.06207  0.01120  0.25030  1.0000
  C   C12       1.0  0.06208  0.99056  0.25024  1.0000
  N   N4        1.0  0.00010  0.02947  0.25041  1.0000
  C   C13       1.0  0.01699  0.04254  0.25048  1.0000
  N   N5        1.0  0.03677  0.03744  0.25052  1.0000
  C   C14       1.0  0.01053  0.06275  0.25043  1.0000
  C   C15       1.0  0.98989  0.06275  0.25032  1.0000
  C   C16       1.0  0.98344  0.04254  0.25029  1.0000
  C   C17       1.0  0.08006  0.97925  0.25019  1.0000
  C   C18       1.0  0.09859  0.99010  0.25019  1.0000
  C   C19       1.0  0.09858  0.01168  0.25021  1.0000
  C   C20       1.0  0.08004  0.02252  0.25029  1.0000
  C   C21       1.0  0.97858  0.08073  0.25027  1.0000
  C   C22       1.0  0.98942  0.09926  0.25035  1.0000
  C   C23       1.0  0.01100  0.09926  0.25044  1.0000
  C   C24       1.0  0.02185  0.08073  0.25047  1.0000
  N   N6        1.0  0.97163  0.00010  0.25039  1.0000
  C   C25       1.0  0.95856  0.01766  0.25027  1.0000
  N   N7        1.0  0.96366  0.03744  0.25017  1.0000
  C   C26       1.0  0.93836  0.01122  0.25028  1.0000
  C   C27       1.0  0.93835  0.99057  0.25041  1.0000
  C   C28       1.0  0.95856  0.98412  0.25050  1.0000
  C   C29       1.0  0.92037  0.97926  0.25041  1.0000
  C   C30       1.0  0.90184  0.99012  0.25029  1.0000
  C   C31       1.0  0.90185  0.01171  0.25021  1.0000
  C   C32       1.0  0.92039  0.02254  0.25020  1.0000
  N   N8        1.0  0.96366  0.96433  0.25063  1.0000
  H   H1        1.0  0.96401  0.92128  0.25064  1.0000
  O   O1        1.0  0.98044  0.88686  0.25053  1.0000
  O   O2        1.0  0.01996  0.88685  0.25038  1.0000
  H   H2        1.0  0.03640  0.92126  0.25029  1.0000
  H   H3        1.0  0.07983  0.96468  0.25017  1.0000
  O   O3        1.0  0.11424  0.98113  0.25018  1.0000
  O   O4        1.0  0.11422  0.02066  0.25016  1.0000
  H   H4        1.0  0.07980  0.03708  0.25031  1.0000
  H   H5        1.0  0.96402  0.08049  0.25021  1.0000
  O   O5        1.0  0.98045  0.11491  0.25036  1.0000
  O   O6        1.0  0.01997  0.11491  0.25049  1.0000
  H   H6        1.0  0.03641  0.08049  0.25053  1.0000
  H   H7        1.0  0.92060  0.96470  0.25048  1.0000
  O   O7        1.0  0.88620  0.98116  0.25025  1.0000
  O   O8        1.0  0.88621  0.02068  0.25015  1.0000
  H   H8        1.0  0.92063  0.03710  0.25013  1.0000
  Ni  Ni1       1.0  0.00010  0.00010  0.25045  1.0000
  C   C33       1.0  0.97857  0.92102  0.75061  1.0000
  C   C34       1.0  0.98940  0.90248  0.75054  1.0000
  C   C35       1.0  0.01099  0.90247  0.75045  1.0000
  C   C36       1.0  0.02184  0.92100  0.75040  1.0000
  C   C37       1.0  0.01053  0.93898  0.75046  1.0000
  C   C38       1.0  0.98989  0.93899  0.75057  1.0000
  C   C39       1.0  0.98345  0.95920  0.75060  1.0000
  N   N9        1.0  0.00010  0.97226  0.75051  1.0000
  C   C40       1.0  0.01699  0.95919  0.75042  1.0000
  N   N10       1.0  0.03678  0.96428  0.75029  1.0000
  C   C41       1.0  0.04189  0.98407  0.75031  1.0000
  N   N11       1.0  0.02882  0.00010  0.75039  1.0000
  C   C42       1.0  0.04190  0.01761  0.75043  1.0000
  C   C43       1.0  0.06210  0.01116  0.75034  1.0000
  C   C44       1.0  0.06210  0.99051  0.75028  1.0000
  N   N12       1.0  0.00010  0.02945  0.75045  1.0000
  C   C45       1.0  0.01702  0.04251  0.75052  1.0000
  N   N13       1.0  0.03680  0.03740  0.75056  1.0000
  C   C46       1.0  0.01057  0.06272  0.75047  1.0000
  C   C47       1.0  0.98993  0.06273  0.75036  1.0000
  C   C48       1.0  0.98348  0.04253  0.75033  1.0000
  C   C49       1.0  0.08008  0.97920  0.75024  1.0000
  C   C50       1.0  0.09861  0.99005  0.75024  1.0000
  C   C51       1.0  0.09861  0.01163  0.75025  1.0000
  C   C52       1.0  0.08007  0.02247  0.75033  1.0000
  C   C53       1.0  0.97862  0.08071  0.75031  1.0000
  C   C54       1.0  0.98947  0.09924  0.75038  1.0000
  C   C55       1.0  0.01105  0.09924  0.75047  1.0000
  C   C56       1.0  0.02189  0.08070  0.75051  1.0000
  N   N14       1.0  0.97165  0.00010  0.75043  1.0000
  C   C57       1.0  0.95859  0.01765  0.75030  1.0000
  N   N15       1.0  0.96370  0.03743  0.75020  1.0000
  C   C58       1.0  0.93838  0.01121  0.75031  1.0000
  C   C59       1.0  0.93837  0.99057  0.75044  1.0000
  C   C60       1.0  0.95857  0.98410  0.75053  1.0000
  C   C61       1.0  0.92039  0.97926  0.75044  1.0000
  C   C62       1.0  0.90186  0.99012  0.75032  1.0000
  C   C63       1.0  0.90187  0.01171  0.75024  1.0000
  C   C64       1.0  0.92041  0.02254  0.75023  1.0000
  N   N16       1.0  0.96367  0.96432  0.75067  1.0000
  H   H9        1.0  0.96401  0.92127  0.75067  1.0000
  O   O9        1.0  0.98043  0.88684  0.75057  1.0000
  O   O10       1.0  0.01995  0.88682  0.75042  1.0000
  H   H10       1.0  0.03640  0.92123  0.75033  1.0000
  H   H11       1.0  0.07984  0.96464  0.75021  1.0000
  O   O11       1.0  0.11425  0.98108  0.75023  1.0000
  O   O12       1.0  0.11425  0.02060  0.75021  1.0000
  H   H12       1.0  0.07983  0.03704  0.75035  1.0000
  H   H13       1.0  0.96406  0.08048  0.75024  1.0000
  O   O13       1.0  0.98050  0.11489  0.75039  1.0000
  O   O14       1.0  0.02002  0.11488  0.75053  1.0000
  H   H14       1.0  0.03645  0.08046  0.75057  1.0000
  H   H15       1.0  0.92061  0.96470  0.75051  1.0000
  O   O15       1.0  0.88621  0.98116  0.75028  1.0000
  O   O16       1.0  0.88624  0.02069  0.75017  1.0000
  H   H16       1.0  0.92066  0.03710  0.75015  1.0000
  Ni  Ni2       1.0  0.00010  0.00010  0.75049  1.0000
  C   C65       1.0  0.47857  0.42099  0.75038  1.0000
  C   C66       1.0  0.48941  0.40245  0.75032  1.0000
  C   C67       1.0  0.51100  0.40245  0.75023  1.0000
  C   C68       1.0  0.52185  0.42098  0.75019  1.0000
  C   C69       1.0  0.51054  0.43896  0.75025  1.0000
  C   C70       1.0  0.48989  0.43897  0.75036  1.0000
  C   C71       1.0  0.48345  0.45918  0.75039  1.0000
  N   N17       1.0  0.50022  0.47224  0.75030  1.0000
  C   C72       1.0  0.51699  0.45917  0.75021  1.0000
  N   N18       1.0  0.53677  0.46427  0.75010  1.0000
  C   C73       1.0  0.54188  0.48405  0.75012  1.0000
  N   N19       1.0  0.52881  0.50083  0.75020  1.0000
  C   C74       1.0  0.54188  0.51760  0.75025  1.0000
  C   C75       1.0  0.56208  0.51115  0.75017  1.0000
  C   C76       1.0  0.56209  0.49051  0.75010  1.0000
  N   N20       1.0  0.50023  0.52943  0.75025  1.0000
  C   C77       1.0  0.51700  0.54250  0.75034  1.0000
  N   N21       1.0  0.53678  0.53739  0.75038  1.0000
  C   C78       1.0  0.51055  0.56270  0.75028  1.0000
  C   C79       1.0  0.48991  0.56271  0.75017  1.0000
  C   C80       1.0  0.48346  0.54250  0.75013  1.0000
  C   C81       1.0  0.58007  0.47920  0.75006  1.0000
  C   C82       1.0  0.59860  0.49005  0.75006  1.0000
  C   C83       1.0  0.59859  0.51163  0.75009  1.0000
  C   C84       1.0  0.58006  0.52247  0.75016  1.0000
  C   C85       1.0  0.47859  0.58069  0.75012  1.0000
  C   C86       1.0  0.48943  0.59922  0.75021  1.0000
  C   C87       1.0  0.51101  0.59922  0.75030  1.0000
  C   C88       1.0  0.52186  0.58068  0.75034  1.0000
  N   N22       1.0  0.47164  0.50084  0.75022  1.0000
  C   C89       1.0  0.45857  0.51762  0.75009  1.0000
  N   N23       1.0  0.46368  0.53740  0.75000  1.0000
  C   C90       1.0  0.43837  0.51117  0.75010  1.0000
  C   C91       1.0  0.43836  0.49053  0.75022  1.0000
  C   C92       1.0  0.45857  0.48407  0.75031  1.0000
  C   C93       1.0  0.42038  0.47922  0.75022  1.0000
  C   C94       1.0  0.40185  0.49008  0.75009  1.0000
  C   C95       1.0  0.40186  0.51167  0.75001  1.0000
  C   C96       1.0  0.42040  0.52250  0.75001  1.0000
  N   N24       1.0  0.46367  0.46429  0.75045  1.0000
  H   H17       1.0  0.46401  0.42124  0.75044  1.0000
  O   O17       1.0  0.48044  0.38681  0.75034  1.0000
  O   O18       1.0  0.51996  0.38680  0.75020  1.0000
  H   H18       1.0  0.53641  0.42122  0.75012  1.0000
  H   H19       1.0  0.57984  0.46463  0.75003  1.0000
  O   O19       1.0  0.61425  0.48108  0.75006  1.0000
  O   O20       1.0  0.61423  0.52061  0.75005  1.0000
  H   H20       1.0  0.57981  0.53703  0.75019  1.0000
  H   H21       1.0  0.46403  0.58045  0.75005  1.0000
  O   O21       1.0  0.48046  0.61486  0.75021  1.0000
  O   O22       1.0  0.51999  0.61486  0.75036  1.0000
  H   H22       1.0  0.53642  0.58045  0.75040  1.0000
  H   H23       1.0  0.42061  0.46466  0.75028  1.0000
  O   O23       1.0  0.38620  0.48112  0.75004  1.0000
  O   O24       1.0  0.38622  0.52065  0.74995  1.0000
  H   H24       1.0  0.42064  0.53706  0.74994  1.0000
  Ni  Ni3       1.0  0.50022  0.50083  0.75029  1.0000
  C   C97       1.0  0.47856  0.42103  0.25075  1.0000
  C   C98       1.0  0.48940  0.40249  0.25069  1.0000
  C   C99       1.0  0.51098  0.40248  0.25060  1.0000
  C   C100      1.0  0.52183  0.42101  0.25056  1.0000
  C   C101      1.0  0.51053  0.43900  0.25061  1.0000
  C   C102      1.0  0.48988  0.43901  0.25072  1.0000
  C   C103      1.0  0.48344  0.45922  0.25075  1.0000
  N   N25       1.0  0.50022  0.47228  0.25067  1.0000
  C   C104      1.0  0.51698  0.45920  0.25058  1.0000
  N   N26       1.0  0.53677  0.46430  0.25046  1.0000
  C   C105      1.0  0.54188  0.48408  0.25047  1.0000
  N   N27       1.0  0.52881  0.50086  0.25056  1.0000
  C   C106      1.0  0.54188  0.51763  0.25061  1.0000
  C   C107      1.0  0.56209  0.51118  0.25052  1.0000
  C   C108      1.0  0.56209  0.49053  0.25045  1.0000
  N   N28       1.0  0.50023  0.52946  0.25061  1.0000
  C   C109      1.0  0.51700  0.54253  0.25069  1.0000
  N   N29       1.0  0.53678  0.53742  0.25073  1.0000
  C   C110      1.0  0.51056  0.56274  0.25064  1.0000
  C   C111      1.0  0.48992  0.56274  0.25052  1.0000
  C   C112      1.0  0.48346  0.54254  0.25049  1.0000
  C   C113      1.0  0.58007  0.47922  0.25041  1.0000
  C   C114      1.0  0.59860  0.49007  0.25042  1.0000
  C   C115      1.0  0.59859  0.51165  0.25044  1.0000
  C   C116      1.0  0.58006  0.52249  0.25051  1.0000
  C   C117      1.0  0.47861  0.58072  0.25047  1.0000
  C   C118      1.0  0.48945  0.59926  0.25056  1.0000
  C   C119      1.0  0.51103  0.59925  0.25065  1.0000
  C   C120      1.0  0.52187  0.58071  0.25069  1.0000
  N   N30       1.0  0.47164  0.50088  0.25058  1.0000
  C   C121      1.0  0.45857  0.51766  0.25046  1.0000
  N   N31       1.0  0.46368  0.53744  0.25036  1.0000
  C   C122      1.0  0.43837  0.51122  0.25046  1.0000
  C   C123      1.0  0.43836  0.49058  0.25059  1.0000
  C   C124      1.0  0.45856  0.48411  0.25068  1.0000
  C   C125      1.0  0.42038  0.47927  0.25059  1.0000
  C   C126      1.0  0.40185  0.49013  0.25046  1.0000
  C   C127      1.0  0.40186  0.51172  0.25038  1.0000
  C   C128      1.0  0.42040  0.52255  0.25037  1.0000
  N   N32       1.0  0.46366  0.46433  0.25082  1.0000
  H   H25       1.0  0.46400  0.42128  0.25081  1.0000
  O   O25       1.0  0.48042  0.38685  0.25071  1.0000
  O   O26       1.0  0.51995  0.38683  0.25057  1.0000
  H   H26       1.0  0.53640  0.42125  0.25049  1.0000
  H   H27       1.0  0.57983  0.46466  0.25039  1.0000
  O   O27       1.0  0.61424  0.48110  0.25041  1.0000
  O   O28       1.0  0.61423  0.52062  0.25040  1.0000
  H   H28       1.0  0.57982  0.53706  0.25054  1.0000
  H   H29       1.0  0.46404  0.58049  0.25040  1.0000
  O   O29       1.0  0.48048  0.61490  0.25056  1.0000
  O   O30       1.0  0.52000  0.61489  0.25071  1.0000
  H   H30       1.0  0.53644  0.58047  0.25075  1.0000
  H   H31       1.0  0.42061  0.46471  0.25065  1.0000
  O   O31       1.0  0.38620  0.48117  0.25041  1.0000
  O   O32       1.0  0.38622  0.52070  0.25031  1.0000
  H   H32       1.0  0.42065  0.53711  0.25030  1.0000
  Ni  Ni4       1.0  0.50022  0.50087  0.25065  1.0000
  C   C129      1.0  0.07445  0.32522  0.05851  1.0000
  C   C130      1.0  0.07063  0.32134  0.08789  1.0000
  C   C131      1.0  0.08146  0.33209  0.10948  1.0000
  C   C132      1.0  0.09618  0.34676  0.10179  1.0000
  C   C133      1.0  0.09948  0.35012  0.07250  1.0000
  C   C134      1.0  0.08911  0.33985  0.05185  1.0000
  C   C135      1.0  0.09598  0.34674  0.02520  1.0000
  N   N33       1.0  0.11094  0.36162  0.02890  1.0000
  C   C136      1.0  0.11283  0.36343  0.05874  1.0000
  N   N34       1.0  0.12533  0.37581  0.07342  1.0000
  C   C137      1.0  0.13777  0.38827  0.05875  1.0000
  N   N35       1.0  0.13958  0.39016  0.02890  1.0000
  C   C138      1.0  0.15447  0.40510  0.02519  1.0000
  C   C139      1.0  0.16139  0.41194  0.05185  1.0000
  C   C140      1.0  0.15111  0.40159  0.07250  1.0000
  N   N36       1.0  0.13956  0.39018  0.97172  1.0000
  C   C141      1.0  0.15444  0.40514  0.97542  1.0000
  N   N37       1.0  0.16175  0.41250  0.00010  1.0000
  C   C142      1.0  0.16134  0.41199  0.94876  1.0000
  C   C143      1.0  0.15108  0.40161  0.92812  1.0000
  C   C144      1.0  0.13777  0.38826  0.94188  1.0000
  C   C145      1.0  0.15446  0.40491  0.10179  1.0000
  C   C146      1.0  0.16915  0.41960  0.10946  1.0000
  C   C147      1.0  0.17993  0.43040  0.08787  1.0000
  C   C148      1.0  0.17604  0.42658  0.05850  1.0000
  C   C149      1.0  0.15444  0.40491  0.89883  1.0000
  C   C150      1.0  0.16908  0.41964  0.89113  1.0000
  C   C151      1.0  0.17982  0.43048  0.91271  1.0000
  C   C152      1.0  0.17596  0.42666  0.94209  1.0000
  N   N38       1.0  0.11099  0.36157  0.97172  1.0000
  C   C153      1.0  0.11291  0.36336  0.94188  1.0000
  N   N39       1.0  0.12539  0.37576  0.92720  1.0000
  C   C154      1.0  0.09958  0.35004  0.92812  1.0000
  C   C155      1.0  0.08919  0.33978  0.94876  1.0000
  C   C156      1.0  0.09602  0.34670  0.97542  1.0000
  C   C157      1.0  0.07455  0.32513  0.94209  1.0000
  C   C158      1.0  0.07078  0.32123  0.91270  1.0000
  C   C159      1.0  0.08162  0.33198  0.89112  1.0000
  C   C160      1.0  0.09630  0.34667  0.89882  1.0000
  N   N40       1.0  0.08861  0.33943  0.00010  1.0000
  H   H33       1.0  0.06726  0.31808  0.04371  1.0000
  O   O33       1.0  0.05831  0.30904  0.09456  1.0000
  O   O34       1.0  0.07814  0.32873  0.13409  1.0000
  H   H34       1.0  0.10361  0.35413  0.11611  1.0000
  H   H35       1.0  0.14708  0.39750  0.11612  1.0000
  O   O35       1.0  0.17249  0.42295  0.13408  1.0000
  O   O36       1.0  0.19225  0.44269  0.09453  1.0000
  H   H36       1.0  0.18319  0.43375  0.04369  1.0000
  H   H37       1.0  0.14708  0.39747  0.88450  1.0000
  O   O37       1.0  0.17242  0.42298  0.86652  1.0000
  O   O38       1.0  0.19210  0.44282  0.90604  1.0000
  H   H38       1.0  0.18309  0.43385  0.95689  1.0000
  H   H39       1.0  0.06735  0.31800  0.95688  1.0000
  O   O39       1.0  0.05850  0.30890  0.90602  1.0000
  O   O40       1.0  0.07832  0.32861  0.86651  1.0000
  H   H40       1.0  0.10374  0.35403  0.88451  1.0000
  Ni  Ni5       1.0  0.12524  0.37590  0.00010  1.0000
  C   C161      1.0  0.57458  0.17677  0.05854  1.0000
  C   C162      1.0  0.57070  0.18058  0.08792  1.0000
  C   C163      1.0  0.58145  0.16975  0.10950  1.0000
  C   C164      1.0  0.59612  0.15503  0.10182  1.0000
  C   C165      1.0  0.59949  0.15173  0.07252  1.0000
  C   C166      1.0  0.58922  0.16211  0.05188  1.0000
  C   C167      1.0  0.59612  0.15525  0.02522  1.0000
  N   N41       1.0  0.61100  0.14028  0.02893  1.0000
  C   C168      1.0  0.61280  0.13839  0.05877  1.0000
  N   N42       1.0  0.62519  0.12588  0.07345  1.0000
  C   C169      1.0  0.63765  0.11345  0.05878  1.0000
  N   N43       1.0  0.63955  0.11165  0.02893  1.0000
  C   C170      1.0  0.65449  0.09675  0.02523  1.0000
  C   C171      1.0  0.66133  0.08983  0.05188  1.0000
  C   C172      1.0  0.65097  0.10011  0.07253  1.0000
  N   N44       1.0  0.63958  0.11167  0.97175  1.0000
  C   C173      1.0  0.65454  0.09679  0.97545  1.0000
  N   N45       1.0  0.66190  0.08948  0.00010  1.0000
  C   C174      1.0  0.66140  0.08989  0.94879  1.0000
  C   C175      1.0  0.65102  0.10016  0.92815  1.0000
  C   C176      1.0  0.63767  0.11347  0.94191  1.0000
  C   C177      1.0  0.65429  0.09675  0.10182  1.0000
  C   C178      1.0  0.66898  0.08206  0.10950  1.0000
  C   C179      1.0  0.67979  0.07129  0.08791  1.0000
  C   C180      1.0  0.67597  0.07518  0.05853  1.0000
  C   C181      1.0  0.65433  0.09681  0.89886  1.0000
  C   C182      1.0  0.66906  0.08216  0.89116  1.0000
  C   C183      1.0  0.67990  0.07142  0.91275  1.0000
  C   C184      1.0  0.67607  0.07528  0.94213  1.0000
  N   N46       1.0  0.61097  0.14024  0.97175  1.0000
  C   C185      1.0  0.61276  0.13833  0.94191  1.0000
  N   N47       1.0  0.62516  0.12584  0.92723  1.0000
  C   C186      1.0  0.59943  0.15166  0.92815  1.0000
  C   C187      1.0  0.58917  0.16204  0.94879  1.0000
  C   C188      1.0  0.59609  0.15521  0.97545  1.0000
  C   C189      1.0  0.57452  0.17668  0.94211  1.0000
  C   C190      1.0  0.57062  0.18046  0.91273  1.0000
  C   C191      1.0  0.58138  0.16963  0.89115  1.0000
  C   C192      1.0  0.59607  0.15494  0.89885  1.0000
  N   N48       1.0  0.58881  0.16261  0.00010  1.0000
  H   H41       1.0  0.56745  0.18396  0.04373  1.0000
  O   O41       1.0  0.55840  0.19290  0.09458  1.0000
  O   O42       1.0  0.57809  0.17306  0.13412  1.0000
  H   H42       1.0  0.60349  0.14760  0.11614  1.0000
  H   H43       1.0  0.64687  0.10413  0.11615  1.0000
  O   O43       1.0  0.67232  0.07871  0.13411  1.0000
  O   O44       1.0  0.69208  0.05896  0.09457  1.0000
  H   H44       1.0  0.68315  0.06803  0.04372  1.0000
  H   H45       1.0  0.64689  0.10417  0.88453  1.0000
  O   O45       1.0  0.67240  0.07883  0.86655  1.0000
  O   O46       1.0  0.69224  0.05914  0.90607  1.0000
  H   H46       1.0  0.68327  0.06814  0.95692  1.0000
  H   H47       1.0  0.56738  0.18388  0.95691  1.0000
  O   O47       1.0  0.55829  0.19274  0.90605  1.0000
  O   O48       1.0  0.57802  0.17293  0.86653  1.0000
  H   H48       1.0  0.60344  0.14750  0.88453  1.0000
  Ni  Ni6       1.0  0.62529  0.12599  0.00010  1.0000
  C   C193      1.0  0.92573  0.67678  0.94214  1.0000
  C   C194      1.0  0.92961  0.68059  0.91276  1.0000
  C   C195      1.0  0.91886  0.66975  0.89117  1.0000
  C   C196      1.0  0.90420  0.65504  0.89886  1.0000
  C   C197      1.0  0.90084  0.65173  0.92816  1.0000
  C   C198      1.0  0.91110  0.66211  0.94880  1.0000
  C   C199      1.0  0.90421  0.65525  0.97546  1.0000
  N   N49       1.0  0.88933  0.64028  0.97175  1.0000
  C   C200      1.0  0.88753  0.63839  0.94191  1.0000
  N   N50       1.0  0.87515  0.62588  0.92723  1.0000
  C   C201      1.0  0.86270  0.61344  0.94191  1.0000
  N   N51       1.0  0.86081  0.61164  0.97176  1.0000
  C   C202      1.0  0.84587  0.59673  0.97547  1.0000
  C   C203      1.0  0.83903  0.58981  0.94881  1.0000
  C   C204      1.0  0.84938  0.60009  0.92816  1.0000
  N   N52       1.0  0.86078  0.61167  0.02894  1.0000
  C   C205      1.0  0.84582  0.59678  0.02524  1.0000
  N   N53       1.0  0.83846  0.58946  0.00010  1.0000
  C   C206      1.0  0.83897  0.58988  0.05190  1.0000
  C   C207      1.0  0.84935  0.60015  0.07254  1.0000
  C   C208      1.0  0.86269  0.61346  0.05878  1.0000
  C   C209      1.0  0.84607  0.59673  0.89887  1.0000
  C   C210      1.0  0.83138  0.58204  0.89120  1.0000
  C   C211      1.0  0.82058  0.57126  0.91279  1.0000
  C   C212      1.0  0.82440  0.57515  0.94217  1.0000
  C   C213      1.0  0.84604  0.59679  0.10183  1.0000
  C   C214      1.0  0.83132  0.58215  0.10953  1.0000
  C   C215      1.0  0.82048  0.57140  0.08795  1.0000
  C   C216      1.0  0.82430  0.57526  0.05857  1.0000
  N   N54       1.0  0.88937  0.64024  0.02893  1.0000
  C   C217      1.0  0.88758  0.63833  0.05878  1.0000
  N   N55       1.0  0.87519  0.62584  0.07346  1.0000
  C   C218      1.0  0.90090  0.65166  0.07253  1.0000
  C   C219      1.0  0.91116  0.66205  0.05189  1.0000
  C   C220      1.0  0.90424  0.65522  0.02523  1.0000
  C   C221      1.0  0.92580  0.67670  0.05856  1.0000
  C   C222      1.0  0.92970  0.68048  0.08795  1.0000
  C   C223      1.0  0.91895  0.66964  0.10953  1.0000
  C   C224      1.0  0.90427  0.65495  0.10183  1.0000
  N   N56       1.0  0.91151  0.66262  0.00010  1.0000
  H   H49       1.0  0.93286  0.68397  0.95694  1.0000
  O   O49       1.0  0.94190  0.69291  0.90609  1.0000
  O   O50       1.0  0.92222  0.67307  0.86656  1.0000
  H   H50       1.0  0.89684  0.64760  0.88454  1.0000
  H   H51       1.0  0.85347  0.60411  0.88454  1.0000
  O   O51       1.0  0.82804  0.57869  0.86659  1.0000
  O   O52       1.0  0.80830  0.55893  0.90613  1.0000
  H   H52       1.0  0.81722  0.56801  0.95697  1.0000
  H   H53       1.0  0.85348  0.60416  0.11616  1.0000
  O   O53       1.0  0.82798  0.57882  0.13414  1.0000
  O   O54       1.0  0.80815  0.55912  0.09463  1.0000
  H   H54       1.0  0.81711  0.56812  0.04377  1.0000
  H   H55       1.0  0.93293  0.68390  0.04377  1.0000
  O   O55       1.0  0.94203  0.69276  0.09462  1.0000
  O   O56       1.0  0.92231  0.67295  0.13414  1.0000
  H   H56       1.0  0.89690  0.64751  0.11615  1.0000
  Ni  Ni7       1.0  0.87505  0.62598  0.00010  1.0000
  C   C225      1.0  0.32458  0.92669  0.05852  1.0000
  C   C226      1.0  0.32070  0.93051  0.08790  1.0000
  C   C227      1.0  0.33145  0.91967  0.10949  1.0000
  C   C228      1.0  0.34612  0.90496  0.10180  1.0000
  C   C229      1.0  0.34948  0.90165  0.07251  1.0000
  C   C230      1.0  0.33921  0.91203  0.05186  1.0000
  C   C231      1.0  0.34611  0.90516  0.02521  1.0000
  N   N57       1.0  0.36099  0.89020  0.02892  1.0000
  C   C232      1.0  0.36279  0.88830  0.05876  1.0000
  N   N58       1.0  0.37518  0.87580  0.07344  1.0000
  C   C233      1.0  0.38764  0.86337  0.05877  1.0000
  N   N59       1.0  0.38953  0.86156  0.02892  1.0000
  C   C234      1.0  0.40448  0.84666  0.02522  1.0000
  C   C235      1.0  0.41131  0.83974  0.05187  1.0000
  C   C236      1.0  0.40096  0.85003  0.07252  1.0000
  N   N60       1.0  0.38956  0.86158  0.97174  1.0000
  C   C237      1.0  0.40452  0.84670  0.97544  1.0000
  N   N61       1.0  0.41188  0.83938  0.00010  1.0000
  C   C238      1.0  0.41137  0.83979  0.94879  1.0000
  C   C239      1.0  0.40099  0.85005  0.92814  1.0000
  C   C240      1.0  0.38765  0.86336  0.94190  1.0000
  C   C241      1.0  0.40428  0.84667  0.10181  1.0000
  C   C242      1.0  0.41898  0.83198  0.10949  1.0000
  C   C243      1.0  0.42977  0.82120  0.08790  1.0000
  C   C244      1.0  0.42596  0.82509  0.05853  1.0000
  C   C245      1.0  0.40430  0.84669  0.89885  1.0000
  C   C246      1.0  0.41903  0.83205  0.89116  1.0000
  C   C247      1.0  0.42987  0.82131  0.91274  1.0000
  C   C248      1.0  0.42605  0.82517  0.94212  1.0000
  N   N62       1.0  0.36095  0.89015  0.97174  1.0000
  C   C249      1.0  0.36274  0.88823  0.94189  1.0000
  N   N63       1.0  0.37514  0.87574  0.92722  1.0000
  C   C250      1.0  0.34941  0.90156  0.92813  1.0000
  C   C251      1.0  0.33915  0.91195  0.94877  1.0000
  C   C252      1.0  0.34607  0.90512  0.97543  1.0000
  C   C253      1.0  0.32450  0.92659  0.94209  1.0000
  C   C254      1.0  0.32060  0.93036  0.91271  1.0000
  C   C255      1.0  0.33136  0.91952  0.89113  1.0000
  C   C256      1.0  0.34605  0.90483  0.89884  1.0000
  N   N64       1.0  0.33880  0.91253  0.00010  1.0000
  H   H57       1.0  0.31744  0.93388  0.04371  1.0000
  O   O57       1.0  0.30840  0.94283  0.09456  1.0000
  O   O58       1.0  0.32809  0.92300  0.13410  1.0000
  H   H58       1.0  0.35348  0.89753  0.11613  1.0000
  H   H59       1.0  0.39687  0.85405  0.11614  1.0000
  O   O59       1.0  0.42231  0.82864  0.13410  1.0000
  O   O60       1.0  0.44206  0.80887  0.09456  1.0000
  H   H60       1.0  0.43313  0.81794  0.04372  1.0000
  H   H61       1.0  0.39686  0.85406  0.88452  1.0000
  O   O61       1.0  0.42237  0.82871  0.86655  1.0000
  O   O62       1.0  0.44221  0.80903  0.90607  1.0000
  H   H62       1.0  0.43324  0.81804  0.95692  1.0000
  H   H63       1.0  0.31737  0.93379  0.95689  1.0000
  O   O63       1.0  0.30827  0.94264  0.90603  1.0000
  O   O64       1.0  0.32799  0.92282  0.86652  1.0000
  H   H64       1.0  0.35342  0.89739  0.88452  1.0000
  Ni  Ni8       1.0  0.37528  0.87589  0.00010  1.0000
  C   C257      1.0  0.07451  0.67668  0.55854  1.0000
  C   C258      1.0  0.07063  0.68050  0.58792  1.0000
  C   C259      1.0  0.08137  0.66966  0.60951  1.0000
  C   C260      1.0  0.09605  0.65495  0.60182  1.0000
  C   C261      1.0  0.09941  0.65165  0.57252  1.0000
  C   C262      1.0  0.08914  0.66202  0.55188  1.0000
  C   C263      1.0  0.09604  0.65517  0.52522  1.0000
  N   N65       1.0  0.11092  0.64020  0.52892  1.0000
  C   C264      1.0  0.11273  0.63830  0.55877  1.0000
  N   N66       1.0  0.12511  0.62580  0.57344  1.0000
  C   C265      1.0  0.13757  0.61337  0.55876  1.0000
  N   N67       1.0  0.13947  0.61156  0.52892  1.0000
  C   C266      1.0  0.15441  0.59667  0.52521  1.0000
  C   C267      1.0  0.16125  0.58974  0.55186  1.0000
  C   C268      1.0  0.15089  0.60002  0.57251  1.0000
  N   N68       1.0  0.13949  0.61160  0.47174  1.0000
  C   C269      1.0  0.15446  0.59672  0.47543  1.0000
  N   N69       1.0  0.16182  0.58940  0.50032  1.0000
  C   C270      1.0  0.16131  0.58982  0.44877  1.0000
  C   C271      1.0  0.15093  0.60009  0.42813  1.0000
  C   C272      1.0  0.13758  0.61339  0.44189  1.0000
  C   C273      1.0  0.15421  0.59666  0.60180  1.0000
  C   C274      1.0  0.16891  0.58197  0.60947  1.0000
  C   C275      1.0  0.17971  0.57120  0.58788  1.0000
  C   C276      1.0  0.17590  0.57509  0.55850  1.0000
  C   C277      1.0  0.15424  0.59674  0.39884  1.0000
  C   C278      1.0  0.16897  0.58209  0.39114  1.0000
  C   C279      1.0  0.17981  0.57135  0.41272  1.0000
  C   C280      1.0  0.17599  0.57520  0.44210  1.0000
  N   N70       1.0  0.11088  0.64017  0.47175  1.0000
  C   C281      1.0  0.11267  0.63826  0.44190  1.0000
  N   N71       1.0  0.12507  0.62577  0.42722  1.0000
  C   C282      1.0  0.09935  0.65159  0.42815  1.0000
  C   C283      1.0  0.08909  0.66197  0.44879  1.0000
  C   C284      1.0  0.09601  0.65513  0.47545  1.0000
  C   C285      1.0  0.07443  0.67661  0.44212  1.0000
  C   C286      1.0  0.07053  0.68039  0.41274  1.0000
  C   C287      1.0  0.08129  0.66956  0.39116  1.0000
  C   C288      1.0  0.09598  0.65487  0.39885  1.0000
  N   N72       1.0  0.08873  0.66254  0.50034  1.0000
  H   H65       1.0  0.06737  0.68388  0.54374  1.0000
  O   O65       1.0  0.05832  0.69281  0.59460  1.0000
  O   O66       1.0  0.07802  0.67297  0.63412  1.0000
  H   H66       1.0  0.10342  0.64751  0.61614  1.0000
  H   H67       1.0  0.14680  0.60404  0.61614  1.0000
  O   O67       1.0  0.17225  0.57862  0.63408  1.0000
  O   O68       1.0  0.19200  0.55887  0.59453  1.0000
  H   H68       1.0  0.18307  0.56795  0.54369  1.0000
  H   H69       1.0  0.14680  0.60410  0.38452  1.0000
  O   O69       1.0  0.17231  0.57877  0.36653  1.0000
  O   O70       1.0  0.19215  0.55907  0.40604  1.0000
  H   H70       1.0  0.18318  0.56807  0.45690  1.0000
  H   H71       1.0  0.06730  0.68381  0.45692  1.0000
  O   O71       1.0  0.05820  0.69268  0.40606  1.0000
  O   O72       1.0  0.07793  0.67287  0.36654  1.0000
  H   H72       1.0  0.10335  0.64744  0.38453  1.0000
  Ni  Ni9       1.0  0.12521  0.62591  0.50033  1.0000
  C   C289      1.0  0.32435  0.07519  0.55851  1.0000
  C   C290      1.0  0.32053  0.07131  0.58789  1.0000
  C   C291      1.0  0.33137  0.08205  0.60948  1.0000
  C   C292      1.0  0.34608  0.09672  0.60180  1.0000
  C   C293      1.0  0.34939  0.10009  0.57250  1.0000
  C   C294      1.0  0.33901  0.08982  0.55186  1.0000
  C   C295      1.0  0.34587  0.09672  0.52520  1.0000
  N   N73       1.0  0.36083  0.11160  0.52891  1.0000
  C   C296      1.0  0.36273  0.11340  0.55875  1.0000
  N   N74       1.0  0.37523  0.12578  0.57343  1.0000
  C   C297      1.0  0.38767  0.13824  0.55876  1.0000
  N   N75       1.0  0.38947  0.14014  0.52891  1.0000
  C   C298      1.0  0.40437  0.15508  0.52521  1.0000
  C   C299      1.0  0.41129  0.16191  0.55186  1.0000
  C   C300      1.0  0.40101  0.15155  0.57251  1.0000
  N   N76       1.0  0.38944  0.14017  0.47173  1.0000
  C   C301      1.0  0.40432  0.15513  0.47543  1.0000
  N   N77       1.0  0.41164  0.16249  0.50032  1.0000
  C   C302      1.0  0.41122  0.16199  0.44878  1.0000
  C   C303      1.0  0.40095  0.15161  0.42813  1.0000
  C   C304      1.0  0.38764  0.13827  0.44189  1.0000
  C   C305      1.0  0.40437  0.15487  0.60180  1.0000
  C   C306      1.0  0.41906  0.16956  0.60948  1.0000
  C   C307      1.0  0.42983  0.18036  0.58789  1.0000
  C   C308      1.0  0.42594  0.17655  0.55851  1.0000
  C   C309      1.0  0.40431  0.15492  0.39884  1.0000
  C   C310      1.0  0.41895  0.16965  0.39115  1.0000
  C   C311      1.0  0.42970  0.18049  0.41273  1.0000
  C   C312      1.0  0.42584  0.17666  0.44211  1.0000
  N   N78       1.0  0.36087  0.11157  0.47173  1.0000
  C   C313      1.0  0.36278  0.11336  0.44189  1.0000
  N   N79       1.0  0.37527  0.12576  0.42721  1.0000
  C   C314      1.0  0.34945  0.10004  0.42813  1.0000
  C   C315      1.0  0.33907  0.08978  0.44877  1.0000
  C   C316      1.0  0.34590  0.09670  0.47543  1.0000
  C   C317      1.0  0.32442  0.07514  0.44209  1.0000
  C   C318      1.0  0.32064  0.07124  0.41271  1.0000
  C   C319      1.0  0.33148  0.08200  0.39113  1.0000
  C   C320      1.0  0.34617  0.09668  0.39883  1.0000
  N   N80       1.0  0.33850  0.08942  0.50031  1.0000
  H   H73       1.0  0.31715  0.06806  0.54371  1.0000
  O   O73       1.0  0.30822  0.05901  0.59456  1.0000
  O   O74       1.0  0.32805  0.07869  0.63410  1.0000
  H   H74       1.0  0.35352  0.10408  0.61612  1.0000
  H   H75       1.0  0.39699  0.14746  0.61614  1.0000
  O   O75       1.0  0.42241  0.17289  0.63409  1.0000
  O   O76       1.0  0.44216  0.19265  0.59455  1.0000
  H   H76       1.0  0.43309  0.18373  0.54371  1.0000
  H   H77       1.0  0.39694  0.14749  0.38451  1.0000
  O   O77       1.0  0.42228  0.17300  0.36653  1.0000
  O   O78       1.0  0.44197  0.19282  0.40606  1.0000
  H   H78       1.0  0.43297  0.18385  0.45691  1.0000
  H   H79       1.0  0.31723  0.06800  0.45689  1.0000
  O   O79       1.0  0.30836  0.05891  0.40602  1.0000
  O   O80       1.0  0.32817  0.07864  0.36651  1.0000
  H   H80       1.0  0.35360  0.10405  0.38451  1.0000
  Ni  Ni10      1.0  0.37513  0.12589  0.50032  1.0000
  C   C321      1.0  0.82466  0.42676  0.55857  1.0000
  C   C322      1.0  0.82078  0.43057  0.58795  1.0000
  C   C323      1.0  0.83153  0.41973  0.60953  1.0000
  C   C324      1.0  0.84620  0.40502  0.60184  1.0000
  C   C325      1.0  0.84956  0.40172  0.57255  1.0000
  C   C326      1.0  0.83929  0.41210  0.55191  1.0000
  C   C327      1.0  0.84619  0.40524  0.52525  1.0000
  N   N81       1.0  0.86107  0.39027  0.52895  1.0000
  C   C328      1.0  0.86288  0.38838  0.55879  1.0000
  N   N82       1.0  0.87526  0.37587  0.57346  1.0000
  C   C329      1.0  0.88772  0.36344  0.55878  1.0000
  N   N83       1.0  0.88961  0.36163  0.52893  1.0000
  C   C330      1.0  0.90456  0.34674  0.52522  1.0000
  C   C331      1.0  0.91140  0.33982  0.55187  1.0000
  C   C332      1.0  0.90104  0.35010  0.57253  1.0000
  N   N84       1.0  0.88963  0.36167  0.47175  1.0000
  C   C333      1.0  0.90460  0.34679  0.47545  1.0000
  N   N85       1.0  0.91196  0.33947  0.50033  1.0000
  C   C334      1.0  0.91145  0.33989  0.44879  1.0000
  C   C335      1.0  0.90106  0.35015  0.42815  1.0000
  C   C336      1.0  0.88772  0.36346  0.44191  1.0000
  C   C337      1.0  0.90437  0.34673  0.60182  1.0000
  C   C338      1.0  0.91906  0.33204  0.60949  1.0000
  C   C339      1.0  0.92986  0.32127  0.58789  1.0000
  C   C340      1.0  0.92604  0.32516  0.55852  1.0000
  C   C341      1.0  0.90437  0.34680  0.39885  1.0000
  C   C342      1.0  0.91910  0.33216  0.39115  1.0000
  C   C343      1.0  0.92994  0.32141  0.41273  1.0000
  C   C344      1.0  0.92612  0.32527  0.44211  1.0000
  N   N86       1.0  0.86102  0.39024  0.47177  1.0000
  C   C345      1.0  0.86281  0.38832  0.44192  1.0000
  N   N87       1.0  0.87521  0.37584  0.42724  1.0000
  C   C346      1.0  0.84948  0.40165  0.42817  1.0000
  C   C347      1.0  0.83922  0.41204  0.44881  1.0000
  C   C348      1.0  0.84615  0.40520  0.47547  1.0000
  C   C349      1.0  0.82457  0.42668  0.44215  1.0000
  C   C350      1.0  0.82066  0.43046  0.41276  1.0000
  C   C351      1.0  0.83142  0.41963  0.39118  1.0000
  C   C352      1.0  0.84611  0.40494  0.39888  1.0000
  N   N88       1.0  0.83888  0.41261  0.50036  1.0000
  H   H81       1.0  0.81752  0.43395  0.54377  1.0000
  O   O81       1.0  0.80848  0.44288  0.59463  1.0000
  O   O82       1.0  0.82817  0.42305  0.63415  1.0000
  H   H82       1.0  0.85357  0.39759  0.61616  1.0000
  H   H83       1.0  0.89696  0.35411  0.61615  1.0000
  O   O83       1.0  0.92241  0.32870  0.63410  1.0000
  O   O84       1.0  0.94215  0.30894  0.59454  1.0000
  H   H84       1.0  0.93322  0.31802  0.54370  1.0000
  H   H85       1.0  0.89693  0.35416  0.38453  1.0000
  O   O85       1.0  0.92244  0.32883  0.36654  1.0000
  O   O86       1.0  0.94228  0.30913  0.40605  1.0000
  H   H86       1.0  0.93332  0.31813  0.45691  1.0000
  H   H87       1.0  0.81744  0.43388  0.45695  1.0000
  O   O87       1.0  0.80833  0.44274  0.40609  1.0000
  O   O88       1.0  0.82805  0.42293  0.36657  1.0000
  H   H88       1.0  0.85348  0.39750  0.38455  1.0000
  Ni  Ni11      1.0  0.87535  0.37598  0.50035  1.0000
  C   C353      1.0  0.57439  0.82528  0.55855  1.0000
  C   C354      1.0  0.57057  0.82140  0.58793  1.0000
  C   C355      1.0  0.58141  0.83215  0.60951  1.0000
  C   C356      1.0  0.59612  0.84682  0.60183  1.0000
  C   C357      1.0  0.59942  0.85018  0.57253  1.0000
  C   C358      1.0  0.58905  0.83992  0.55189  1.0000
  C   C359      1.0  0.59591  0.84681  0.52523  1.0000
  N   N89       1.0  0.61087  0.86169  0.52894  1.0000
  C   C360      1.0  0.61277  0.86350  0.55878  1.0000
  N   N90       1.0  0.62527  0.87588  0.57346  1.0000
  C   C361      1.0  0.63770  0.88833  0.55878  1.0000
  N   N91       1.0  0.63951  0.89023  0.52894  1.0000
  C   C362      1.0  0.65440  0.90517  0.52523  1.0000
  C   C363      1.0  0.66132  0.91201  0.55188  1.0000
  C   C364      1.0  0.65104  0.90166  0.57253  1.0000
  N   N92       1.0  0.63948  0.89026  0.47176  1.0000
  C   C365      1.0  0.65436  0.90522  0.47546  1.0000
  N   N93       1.0  0.66168  0.91258  0.50034  1.0000
  C   C366      1.0  0.66126  0.91207  0.44880  1.0000
  C   C367      1.0  0.65100  0.90169  0.42816  1.0000
  C   C368      1.0  0.63769  0.88835  0.44191  1.0000
  C   C369      1.0  0.65440  0.90497  0.60183  1.0000
  C   C370      1.0  0.66909  0.91967  0.60950  1.0000
  C   C371      1.0  0.67986  0.93047  0.58791  1.0000
  C   C372      1.0  0.67597  0.92665  0.55853  1.0000
  C   C373      1.0  0.65435  0.90500  0.39886  1.0000
  C   C374      1.0  0.66900  0.91973  0.39117  1.0000
  C   C375      1.0  0.67974  0.93057  0.41275  1.0000
  C   C376      1.0  0.67588  0.92674  0.44213  1.0000
  N   N94       1.0  0.61091  0.86165  0.47176  1.0000
  C   C377      1.0  0.61283  0.86344  0.44192  1.0000
  N   N95       1.0  0.62531  0.87584  0.42724  1.0000
  C   C378      1.0  0.59950  0.85012  0.42816  1.0000
  C   C379      1.0  0.58912  0.83986  0.44880  1.0000
  C   C380      1.0  0.59595  0.84678  0.47546  1.0000
  C   C381      1.0  0.57448  0.82521  0.44212  1.0000
  C   C382      1.0  0.57070  0.82131  0.41274  1.0000
  C   C383      1.0  0.58153  0.83206  0.39116  1.0000
  C   C384      1.0  0.59622  0.84675  0.39886  1.0000
  N   N96       1.0  0.58854  0.83951  0.50035  1.0000
  H   H89       1.0  0.56720  0.81815  0.54374  1.0000
  O   O89       1.0  0.55826  0.80910  0.59460  1.0000
  O   O90       1.0  0.57809  0.82879  0.63413  1.0000
  H   H90       1.0  0.60355  0.85419  0.61615  1.0000
  H   H91       1.0  0.64702  0.89756  0.61616  1.0000
  O   O91       1.0  0.67243  0.92301  0.63411  1.0000
  O   O92       1.0  0.69219  0.94276  0.59457  1.0000
  H   H92       1.0  0.68312  0.93383  0.54373  1.0000
  H   H93       1.0  0.64699  0.89756  0.38454  1.0000
  O   O93       1.0  0.67233  0.92307  0.36656  1.0000
  O   O94       1.0  0.69202  0.94290  0.40608  1.0000
  H   H94       1.0  0.68301  0.93394  0.45693  1.0000
  H   H95       1.0  0.56728  0.81808  0.45692  1.0000
  O   O95       1.0  0.55842  0.80898  0.40606  1.0000
  O   O96       1.0  0.57823  0.82870  0.36654  1.0000
  H   H96       1.0  0.60366  0.85412  0.38454  1.0000
  Ni  Ni12      1.0  0.62517  0.87598  0.50035  1.0000
  C   C385      1.0  0.98956  0.21294  0.25029  1.0000
  C   C386      1.0  0.01091  0.21294  0.25030  1.0000
  C   C387      1.0  0.02160  0.19446  0.25032  1.0000
  C   C388      1.0  0.01098  0.17594  0.25034  1.0000
  C   C389      1.0  0.98957  0.17591  0.25034  1.0000
  C   C390      1.0  0.97892  0.19442  0.25032  1.0000
  O   O97       1.0  0.97906  0.23106  0.25027  1.0000
  O   O98       1.0  0.02134  0.23109  0.25027  1.0000
  H   H97       1.0  0.03740  0.19450  0.25032  1.0000
  O   O99       1.0  0.02156  0.15782  0.25037  1.0000
  O   O100      1.0  0.97903  0.15776  0.25037  1.0000
  H   H98       1.0  0.96311  0.19441  0.25032  1.0000
  Cu  Cu1       1.0  0.00010  0.13608  0.25040  1.0000
  C   C391      1.0  0.78819  0.99027  0.25031  1.0000
  C   C392      1.0  0.78818  0.01162  0.25031  1.0000
  C   C393      1.0  0.80665  0.02232  0.25029  1.0000
  C   C394      1.0  0.82518  0.01170  0.25027  1.0000
  C   C395      1.0  0.82521  0.99028  0.25027  1.0000
  C   C396      1.0  0.80670  0.97963  0.25029  1.0000
  O   O101      1.0  0.77006  0.97977  0.25033  1.0000
  O   O102      1.0  0.77003  0.02206  0.25033  1.0000
  H   H99       1.0  0.80661  0.03812  0.25029  1.0000
  O   O103      1.0  0.84329  0.02227  0.25025  1.0000
  O   O104      1.0  0.84336  0.97974  0.25025  1.0000
  H   H100      1.0  0.80671  0.96382  0.25029  1.0000
  Cu  Cu2       1.0  0.86504  0.00106  0.25022  1.0000
  C   C397      1.0  0.01081  0.78882  0.25035  1.0000
  C   C398      1.0  0.98947  0.78883  0.25036  1.0000
  C   C399      1.0  0.97878  0.80731  0.25038  1.0000
  C   C400      1.0  0.98940  0.82583  0.25040  1.0000
  C   C401      1.0  0.01081  0.82585  0.25039  1.0000
  C   C402      1.0  0.02147  0.80733  0.25037  1.0000
  O   O105      1.0  0.02130  0.77069  0.25033  1.0000
  O   O106      1.0  0.97902  0.77068  0.25034  1.0000
  H   H101      1.0  0.96298  0.80727  0.25038  1.0000
  O   O107      1.0  0.97884  0.84395  0.25042  1.0000
  O   O108      1.0  0.02136  0.84399  0.25041  1.0000
  H   H102      1.0  0.03727  0.80734  0.25037  1.0000
  Cu  Cu3       1.0  0.00010  0.86569  0.25043  1.0000
  C   C403      1.0  0.21224  0.01155  0.25025  1.0000
  C   C404      1.0  0.21225  0.99020  0.25025  1.0000
  C   C405      1.0  0.19378  0.97950  0.25024  1.0000
  C   C406      1.0  0.17525  0.99012  0.25022  1.0000
  C   C407      1.0  0.17522  0.01154  0.25022  1.0000
  C   C408      1.0  0.19373  0.02220  0.25024  1.0000
  O   O109      1.0  0.23036  0.02205  0.25027  1.0000
  O   O110      1.0  0.23041  0.97977  0.25027  1.0000
  H   H103      1.0  0.19383  0.96370  0.25024  1.0000
  O   O111      1.0  0.15714  0.97955  0.25021  1.0000
  O   O112      1.0  0.15707  0.02207  0.25021  1.0000
  H   H104      1.0  0.19371  0.03800  0.25024  1.0000
  Cu  Cu4       1.0  0.13539  0.00010  0.25019  1.0000
  C   C409      1.0  0.98952  0.78881  0.75036  1.0000
  C   C410      1.0  0.01086  0.78880  0.75036  1.0000
  C   C411      1.0  0.02156  0.80727  0.75039  1.0000
  C   C412      1.0  0.01095  0.82580  0.75041  1.0000
  C   C413      1.0  0.98954  0.82584  0.75041  1.0000
  C   C414      1.0  0.97888  0.80733  0.75038  1.0000
  O   O113      1.0  0.97902  0.77069  0.75034  1.0000
  O   O114      1.0  0.02129  0.77064  0.75034  1.0000
  H   H105      1.0  0.03737  0.80722  0.75039  1.0000
  O   O115      1.0  0.02152  0.84392  0.75044  1.0000
  O   O116      1.0  0.97900  0.84399  0.75043  1.0000
  H   H106      1.0  0.96307  0.80735  0.75038  1.0000
  Cu  Cu5       1.0  0.00010  0.86567  0.75046  1.0000
  C   C415      1.0  0.21226  0.99016  0.75027  1.0000
  C   C416      1.0  0.21227  0.01151  0.75027  1.0000
  C   C417      1.0  0.19380  0.02221  0.75026  1.0000
  C   C418      1.0  0.17527  0.01160  0.75025  1.0000
  C   C419      1.0  0.17523  0.99018  0.75025  1.0000
  C   C420      1.0  0.19374  0.97952  0.75026  1.0000
  O   O117      1.0  0.23038  0.97966  0.75029  1.0000
  O   O118      1.0  0.23042  0.02194  0.75029  1.0000
  H   H107      1.0  0.19385  0.03801  0.75026  1.0000
  O   O119      1.0  0.15716  0.02218  0.75024  1.0000
  O   O120      1.0  0.15709  0.97965  0.75024  1.0000
  H   H108      1.0  0.19373  0.96371  0.75026  1.0000
  Cu  Cu6       1.0  0.13541  0.00010  0.75023  1.0000
  C   C421      1.0  0.98968  0.21292  0.75029  1.0000
  C   C422      1.0  0.01103  0.21291  0.75029  1.0000
  C   C423      1.0  0.02171  0.19443  0.75032  1.0000
  C   C424      1.0  0.01108  0.17590  0.75035  1.0000
  C   C425      1.0  0.98967  0.17589  0.75036  1.0000
  C   C426      1.0  0.97902  0.19441  0.75033  1.0000
  O   O121      1.0  0.97919  0.23105  0.75027  1.0000
  O   O122      1.0  0.02147  0.23105  0.75026  1.0000
  H   H109      1.0  0.03751  0.19445  0.75032  1.0000
  O   O123      1.0  0.02164  0.15778  0.75038  1.0000
  O   O124      1.0  0.97912  0.15775  0.75039  1.0000
  H   H110      1.0  0.96322  0.19441  0.75033  1.0000
  Cu  Cu7       1.0  0.00010  0.13605  0.75042  1.0000
  C   C427      1.0  0.78820  0.99031  0.75029  1.0000
  C   C428      1.0  0.78820  0.01166  0.75029  1.0000
  C   C429      1.0  0.80667  0.02235  0.75028  1.0000
  C   C430      1.0  0.82520  0.01172  0.75027  1.0000
  C   C431      1.0  0.82523  0.99031  0.75027  1.0000
  C   C432      1.0  0.80671  0.97966  0.75028  1.0000
  O   O125      1.0  0.77008  0.97982  0.75030  1.0000
  O   O126      1.0  0.77005  0.02210  0.75030  1.0000
  H   H111      1.0  0.80663  0.03815  0.75028  1.0000
  O   O127      1.0  0.84331  0.02229  0.75026  1.0000
  O   O128      1.0  0.84337  0.97977  0.75025  1.0000
  H   H112      1.0  0.80672  0.96385  0.75028  1.0000
  Cu  Cu8       1.0  0.86505  0.00107  0.75024  1.0000
  C   C433      1.0  0.48961  0.71290  0.75031  1.0000
  C   C434      1.0  0.51095  0.71290  0.75031  1.0000
  C   C435      1.0  0.52165  0.69442  0.75031  1.0000
  C   C436      1.0  0.51102  0.67589  0.75030  1.0000
  C   C437      1.0  0.48961  0.67587  0.75030  1.0000
  C   C438      1.0  0.47896  0.69439  0.75030  1.0000
  O   O129      1.0  0.47912  0.73103  0.75031  1.0000
  O   O130      1.0  0.52140  0.73104  0.75032  1.0000
  H   H113      1.0  0.53745  0.69445  0.75031  1.0000
  O   O131      1.0  0.52159  0.65777  0.75030  1.0000
  O   O132      1.0  0.47907  0.65773  0.75029  1.0000
  H   H114      1.0  0.46316  0.69439  0.75030  1.0000
  Cu  Cu9       1.0  0.50037  0.63603  0.75029  1.0000
  C   C439      1.0  0.28820  0.49023  0.75022  1.0000
  C   C440      1.0  0.28819  0.51158  0.75022  1.0000
  C   C441      1.0  0.30666  0.52228  0.75018  1.0000
  C   C442      1.0  0.32519  0.51166  0.75013  1.0000
  C   C443      1.0  0.32522  0.49024  0.75013  1.0000
  C   C444      1.0  0.30671  0.47958  0.75018  1.0000
  O   O133      1.0  0.27008  0.47973  0.75026  1.0000
  O   O134      1.0  0.27003  0.52201  0.75026  1.0000
  H   H115      1.0  0.30661  0.53808  0.75018  1.0000
  O   O135      1.0  0.34330  0.52223  0.75009  1.0000
  O   O136      1.0  0.34337  0.47970  0.75009  1.0000
  H   H116      1.0  0.30672  0.46378  0.75018  1.0000
  Cu  Cu10      1.0  0.36505  0.50102  0.75004  1.0000
  C   C445      1.0  0.51084  0.28879  0.75028  1.0000
  C   C446      1.0  0.48949  0.28879  0.75028  1.0000
  C   C447      1.0  0.47880  0.30727  0.75028  1.0000
  C   C448      1.0  0.48942  0.32579  0.75027  1.0000
  C   C449      1.0  0.51083  0.32582  0.75027  1.0000
  C   C450      1.0  0.52149  0.30730  0.75027  1.0000
  O   O137      1.0  0.52133  0.27066  0.75028  1.0000
  O   O138      1.0  0.47905  0.27064  0.75028  1.0000
  H   H117      1.0  0.46300  0.30723  0.75028  1.0000
  O   O139      1.0  0.47885  0.34391  0.75027  1.0000
  O   O140      1.0  0.52137  0.34396  0.75027  1.0000
  H   H118      1.0  0.53729  0.30731  0.75027  1.0000
  Cu  Cu11      1.0  0.50006  0.36565  0.75027  1.0000
  C   C451      1.0  0.71225  0.51146  0.75034  1.0000
  C   C452      1.0  0.71225  0.49011  0.75033  1.0000
  C   C453      1.0  0.69378  0.47942  0.75028  1.0000
  C   C454      1.0  0.67525  0.49004  0.75023  1.0000
  C   C455      1.0  0.67523  0.51146  0.75023  1.0000
  C   C456      1.0  0.69374  0.52211  0.75028  1.0000
  O   O141      1.0  0.73038  0.52195  0.75039  1.0000
  O   O142      1.0  0.73040  0.47966  0.75039  1.0000
  H   H119      1.0  0.69382  0.46361  0.75028  1.0000
  O   O143      1.0  0.65714  0.47948  0.75017  1.0000
  O   O144      1.0  0.65708  0.52200  0.75018  1.0000
  H   H120      1.0  0.69373  0.53791  0.75028  1.0000
  Cu  Cu12      1.0  0.63540  0.50070  0.75011  1.0000
  C   C457      1.0  0.48950  0.28883  0.25038  1.0000
  C   C458      1.0  0.51085  0.28881  0.25038  1.0000
  C   C459      1.0  0.52155  0.30728  0.25043  1.0000
  C   C460      1.0  0.51094  0.32582  0.25048  1.0000
  C   C461      1.0  0.48953  0.32586  0.25048  1.0000
  C   C462      1.0  0.47886  0.30735  0.25042  1.0000
  O   O145      1.0  0.47900  0.27071  0.25033  1.0000
  O   O146      1.0  0.52128  0.27065  0.25033  1.0000
  H   H121      1.0  0.53735  0.30723  0.25043  1.0000
  O   O147      1.0  0.52152  0.34393  0.25053  1.0000
  O   O148      1.0  0.47900  0.34401  0.25052  1.0000
  H   H122      1.0  0.46306  0.30737  0.25042  1.0000
  Cu  Cu13      1.0  0.50032  0.36568  0.25058  1.0000
  C   C463      1.0  0.71225  0.49020  0.25037  1.0000
  C   C464      1.0  0.71226  0.51155  0.25037  1.0000
  C   C465      1.0  0.69378  0.52225  0.25038  1.0000
  C   C466      1.0  0.67526  0.51163  0.25038  1.0000
  C   C467      1.0  0.67522  0.49022  0.25038  1.0000
  C   C468      1.0  0.69374  0.47956  0.25037  1.0000
  O   O149      1.0  0.73037  0.47970  0.25036  1.0000
  O   O150      1.0  0.73041  0.52198  0.25036  1.0000
  H   H123      1.0  0.69383  0.53805  0.25038  1.0000
  O   O151      1.0  0.65714  0.52221  0.25039  1.0000
  O   O152      1.0  0.65708  0.47968  0.25039  1.0000
  H   H124      1.0  0.69373  0.46375  0.25037  1.0000
  Cu  Cu14      1.0  0.63540  0.50100  0.25040  1.0000
  C   C469      1.0  0.48965  0.71293  0.25037  1.0000
  C   C470      1.0  0.51099  0.71293  0.25037  1.0000
  C   C471      1.0  0.52168  0.69444  0.25042  1.0000
  C   C472      1.0  0.51105  0.67592  0.25047  1.0000
  C   C473      1.0  0.48964  0.67590  0.25047  1.0000
  C   C474      1.0  0.47899  0.69442  0.25042  1.0000
  O   O153      1.0  0.47916  0.73106  0.25033  1.0000
  O   O154      1.0  0.52144  0.73107  0.25032  1.0000
  H   H125      1.0  0.53748  0.69448  0.25042  1.0000
  O   O155      1.0  0.52161  0.65780  0.25052  1.0000
  O   O156      1.0  0.47909  0.65776  0.25052  1.0000
  H   H126      1.0  0.46319  0.69442  0.25043  1.0000
  Cu  Cu15      1.0  0.50039  0.63607  0.25058  1.0000
  C   C475      1.0  0.28819  0.49032  0.25029  1.0000
  C   C476      1.0  0.28819  0.51167  0.25029  1.0000
  C   C477      1.0  0.30666  0.52236  0.25031  1.0000
  C   C478      1.0  0.32519  0.51174  0.25032  1.0000
  C   C479      1.0  0.32521  0.49032  0.25032  1.0000
  C   C480      1.0  0.30670  0.47967  0.25030  1.0000
  O   O157      1.0  0.27006  0.47983  0.25028  1.0000
  O   O158      1.0  0.27004  0.52212  0.25028  1.0000
  H   H127      1.0  0.30662  0.53817  0.25031  1.0000
  O   O159      1.0  0.34330  0.52230  0.25033  1.0000
  O   O160      1.0  0.34335  0.47978  0.25033  1.0000
  H   H128      1.0  0.30670  0.46387  0.25030  1.0000
  Cu  Cu16      1.0  0.36504  0.50108  0.25035  1.0000
  C   C481      1.0  0.01387  0.26455  0.20167  1.0000
  C   C482      1.0  0.02454  0.27522  0.22303  1.0000
  C   C483      1.0  0.03913  0.28980  0.21526  1.0000
  C   C484      1.0  0.04309  0.29376  0.18612  1.0000
  C   C485      1.0  0.03240  0.28307  0.16467  1.0000
  C   C486      1.0  0.01781  0.26849  0.17251  1.0000
  O   O161      1.0  0.99990  0.25025  0.20929  1.0000
  O   O162      1.0  0.02068  0.27136  0.25162  1.0000
  H   H129      1.0  0.04701  0.29768  0.23111  1.0000
  O   O163      1.0  0.05744  0.30810  0.17858  1.0000
  O   O164      1.0  0.03621  0.28688  0.13598  1.0000
  H   H130      1.0  0.00992  0.26060  0.15669  1.0000
  Cu  Cu17      1.0  0.05771  0.30837  0.13562  1.0000
  C   C487      1.0  0.73657  0.01456  0.20173  1.0000
  C   C488      1.0  0.72590  0.02523  0.22308  1.0000
  C   C489      1.0  0.71130  0.03981  0.21530  1.0000
  C   C490      1.0  0.70734  0.04375  0.18615  1.0000
  C   C491      1.0  0.71804  0.03306  0.16471  1.0000
  C   C492      1.0  0.73263  0.01848  0.17257  1.0000
  O   O165      1.0  0.75089  0.00010  0.20937  1.0000
  O   O166      1.0  0.72976  0.02139  0.25168  1.0000
  H   H131      1.0  0.70342  0.04769  0.23114  1.0000
  O   O167      1.0  0.69299  0.05809  0.17860  1.0000
  O   O168      1.0  0.71423  0.03685  0.13602  1.0000
  H   H132      1.0  0.74053  0.01058  0.15676  1.0000
  Cu  Cu18      1.0  0.69272  0.05834  0.13564  1.0000
  C   C493      1.0  0.98650  0.73721  0.20174  1.0000
  C   C494      1.0  0.97583  0.72654  0.22310  1.0000
  C   C495      1.0  0.96125  0.71196  0.21533  1.0000
  C   C496      1.0  0.95729  0.70800  0.18618  1.0000
  C   C497      1.0  0.96798  0.71868  0.16473  1.0000
  C   C498      1.0  0.98256  0.73327  0.17258  1.0000
  O   O169      1.0  0.00010  0.75152  0.20936  1.0000
  O   O170      1.0  0.97969  0.73041  0.25169  1.0000
  H   H133      1.0  0.95337  0.70408  0.23118  1.0000
  O   O171      1.0  0.94295  0.69365  0.17864  1.0000
  O   O172      1.0  0.96418  0.71487  0.13605  1.0000
  H   H134      1.0  0.99046  0.74116  0.15676  1.0000
  Cu  Cu19      1.0  0.94268  0.69337  0.13569  1.0000
  C   C499      1.0  0.26387  0.98724  0.20167  1.0000
  C   C500      1.0  0.27453  0.97658  0.22303  1.0000
  C   C501      1.0  0.28912  0.96199  0.21527  1.0000
  C   C502      1.0  0.29309  0.95804  0.18612  1.0000
  C   C503      1.0  0.28240  0.96873  0.16467  1.0000
  C   C504      1.0  0.26781  0.98331  0.17251  1.0000
  O   O173      1.0  0.24955  0.00155  0.20929  1.0000
  O   O174      1.0  0.27066  0.98043  0.25162  1.0000
  H   H135      1.0  0.29700  0.95411  0.23112  1.0000
  O   O175      1.0  0.30744  0.94369  0.17859  1.0000
  O   O176      1.0  0.28622  0.96492  0.13598  1.0000
  H   H136      1.0  0.25992  0.99121  0.15669  1.0000
  Cu  Cu20      1.0  0.30772  0.94342  0.13563  1.0000
  C   C505      1.0  0.02444  0.72655  0.27765  1.0000
  C   C506      1.0  0.01377  0.73723  0.29899  1.0000
  C   C507      1.0  0.01765  0.73333  0.32816  1.0000
  C   C508      1.0  0.03221  0.71873  0.33607  1.0000
  C   C509      1.0  0.04293  0.70801  0.31468  1.0000
  C   C510      1.0  0.03901  0.71195  0.28551  1.0000
  O   O177      1.0  0.02064  0.73038  0.24902  1.0000
  O   O178      1.0  0.99990  0.75154  0.29128  1.0000
  H   H137      1.0  0.00973  0.74125  0.34393  1.0000
  O   O179      1.0  0.03597  0.71494  0.36475  1.0000
  O   O180      1.0  0.05725  0.69365  0.32228  1.0000
  H   H138      1.0  0.04691  0.70404  0.26971  1.0000
  Cu  Cu21      1.0  0.05743  0.69344  0.36528  1.0000
  C   C511      1.0  0.27451  0.02519  0.27759  1.0000
  C   C512      1.0  0.26383  0.01451  0.29892  1.0000
  C   C513      1.0  0.26773  0.01838  0.32810  1.0000
  C   C514      1.0  0.28232  0.03293  0.33601  1.0000
  C   C515      1.0  0.29305  0.04366  0.31463  1.0000
  C   C516      1.0  0.28911  0.03975  0.28546  1.0000
  O   O181      1.0  0.27069  0.02139  0.24896  1.0000
  O   O182      1.0  0.24952  0.00010  0.29120  1.0000
  H   H139      1.0  0.25981  0.01046  0.34385  1.0000
  O   O183      1.0  0.28611  0.03669  0.36470  1.0000
  O   O184      1.0  0.30740  0.05798  0.32224  1.0000
  H   H140      1.0  0.29701  0.04765  0.26967  1.0000
  Cu  Cu22      1.0  0.30760  0.05814  0.36524  1.0000
  C   C517      1.0  0.97593  0.27522  0.27759  1.0000
  C   C518      1.0  0.98661  0.26453  0.29893  1.0000
  C   C519      1.0  0.98274  0.26843  0.32810  1.0000
  C   C520      1.0  0.96819  0.28303  0.33602  1.0000
  C   C521      1.0  0.95747  0.29376  0.31465  1.0000
  C   C522      1.0  0.96137  0.28982  0.28547  1.0000
  O   O185      1.0  0.97973  0.27139  0.24897  1.0000
  O   O186      1.0  0.00010  0.25022  0.29120  1.0000
  H   H141      1.0  0.99066  0.26050  0.34386  1.0000
  O   O187      1.0  0.96444  0.28681  0.36471  1.0000
  O   O188      1.0  0.94315  0.30812  0.32227  1.0000
  H   H142      1.0  0.95347  0.29773  0.26968  1.0000
  Cu  Cu23      1.0  0.94298  0.30831  0.36526  1.0000
  C   C523      1.0  0.72592  0.97662  0.27765  1.0000
  C   C524      1.0  0.73659  0.98730  0.29899  1.0000
  C   C525      1.0  0.73269  0.98342  0.32816  1.0000
  C   C526      1.0  0.71811  0.96886  0.33607  1.0000
  C   C527      1.0  0.70739  0.95814  0.31468  1.0000
  C   C528      1.0  0.71133  0.96206  0.28551  1.0000
  O   O189      1.0  0.72975  0.98043  0.24903  1.0000
  O   O190      1.0  0.75090  0.00159  0.29128  1.0000
  H   H143      1.0  0.74061  0.99134  0.34393  1.0000
  O   O191      1.0  0.71433  0.96509  0.36476  1.0000
  O   O192      1.0  0.69304  0.94380  0.32229  1.0000
  H   H144      1.0  0.70343  0.95415  0.26972  1.0000
  Cu  Cu24      1.0  0.69284  0.94363  0.36529  1.0000
  C   C529      1.0  0.97583  0.72658  0.77765  1.0000
  C   C530      1.0  0.98651  0.73726  0.79899  1.0000
  C   C531      1.0  0.98261  0.73339  0.82816  1.0000
  C   C532      1.0  0.96802  0.71883  0.83607  1.0000
  C   C533      1.0  0.95729  0.70811  0.81469  1.0000
  C   C534      1.0  0.96123  0.71202  0.78552  1.0000
  O   O193      1.0  0.97966  0.73038  0.74903  1.0000
  O   O194      1.0  0.00010  0.75153  0.79127  1.0000
  H   H145      1.0  0.99053  0.74131  0.84392  1.0000
  O   O195      1.0  0.96423  0.71508  0.86476  1.0000
  O   O196      1.0  0.94293  0.69379  0.82230  1.0000
  H   H146      1.0  0.95332  0.70412  0.76973  1.0000
  Cu  Cu25      1.0  0.94273  0.69362  0.86530  1.0000
  C   C535      1.0  0.27450  0.97648  0.77760  1.0000
  C   C536      1.0  0.26382  0.98716  0.79894  1.0000
  C   C537      1.0  0.26770  0.98326  0.82811  1.0000
  C   C538      1.0  0.28227  0.96867  0.83602  1.0000
  C   C539      1.0  0.29299  0.95795  0.81464  1.0000
  C   C540      1.0  0.28907  0.96189  0.78547  1.0000
  O   O197      1.0  0.27070  0.98030  0.74898  1.0000
  O   O198      1.0  0.24954  0.00147  0.79122  1.0000
  H   H147      1.0  0.25978  0.99118  0.84387  1.0000
  O   O199      1.0  0.28603  0.96489  0.86471  1.0000
  O   O200      1.0  0.30732  0.94359  0.82225  1.0000
  H   H148      1.0  0.29698  0.95398  0.76967  1.0000
  Cu  Cu26      1.0  0.30749  0.94340  0.86524  1.0000
  C   C541      1.0  0.01401  0.26451  0.79886  1.0000
  C   C542      1.0  0.02468  0.27518  0.77751  1.0000
  C   C543      1.0  0.03928  0.28975  0.78529  1.0000
  C   C544      1.0  0.04325  0.29369  0.81445  1.0000
  C   C545      1.0  0.03255  0.28299  0.83589  1.0000
  C   C546      1.0  0.01795  0.26843  0.82802  1.0000
  O   O201      1.0  0.99990  0.25022  0.79123  1.0000
  O   O202      1.0  0.02082  0.27134  0.74892  1.0000
  H   H149      1.0  0.04716  0.29763  0.76945  1.0000
  O   O203      1.0  0.05760  0.30801  0.82200  1.0000
  O   O204      1.0  0.03636  0.28678  0.86457  1.0000
  H   H150      1.0  0.01005  0.26053  0.84384  1.0000
  Cu  Cu27      1.0  0.05788  0.30826  0.86495  1.0000
  C   C547      1.0  0.73660  0.01462  0.79890  1.0000
  C   C548      1.0  0.72593  0.02530  0.77756  1.0000
  C   C549      1.0  0.71135  0.03989  0.78534  1.0000
  C   C550      1.0  0.70741  0.04385  0.81449  1.0000
  C   C551      1.0  0.71810  0.03315  0.83593  1.0000
  C   C552      1.0  0.73268  0.01856  0.82807  1.0000
  O   O205      1.0  0.75090  0.00010  0.79127  1.0000
  O   O206      1.0  0.72977  0.02144  0.74896  1.0000
  H   H151      1.0  0.70347  0.04778  0.76950  1.0000
  O   O207      1.0  0.69307  0.05820  0.82205  1.0000
  O   O208      1.0  0.71431  0.03696  0.86462  1.0000
  H   H152      1.0  0.74058  0.01066  0.84388  1.0000
  Cu  Cu28      1.0  0.69282  0.05847  0.86500  1.0000
  C   C553      1.0  0.97603  0.27517  0.72296  1.0000
  C   C554      1.0  0.98670  0.26449  0.70161  1.0000
  C   C555      1.0  0.98280  0.26837  0.67244  1.0000
  C   C556      1.0  0.96822  0.28294  0.66454  1.0000
  C   C557      1.0  0.95750  0.29366  0.68593  1.0000
  C   C558      1.0  0.96144  0.28974  0.71510  1.0000
  O   O209      1.0  0.97986  0.27136  0.75158  1.0000
  O   O210      1.0  0.00101  0.25020  0.70932  1.0000
  H   H153      1.0  0.99072  0.26044  0.65668  1.0000
  O   O211      1.0  0.96443  0.28670  0.63586  1.0000
  O   O212      1.0  0.94315  0.30800  0.67833  1.0000
  H   H154      1.0  0.95354  0.29765  0.73090  1.0000
  Cu  Cu29      1.0  0.94294  0.30818  0.63534  1.0000
  C   C559      1.0  0.72595  0.97665  0.72299  1.0000
  C   C560      1.0  0.73663  0.98732  0.70164  1.0000
  C   C561      1.0  0.73275  0.98342  0.67247  1.0000
  C   C562      1.0  0.71818  0.96883  0.66457  1.0000
  C   C563      1.0  0.70746  0.95811  0.68596  1.0000
  C   C564      1.0  0.71138  0.96206  0.71513  1.0000
  O   O213      1.0  0.72976  0.98048  0.75161  1.0000
  O   O214      1.0  0.75091  0.00163  0.70935  1.0000
  H   H155      1.0  0.74066  0.99134  0.65671  1.0000
  O   O215      1.0  0.71442  0.96504  0.63589  1.0000
  O   O216      1.0  0.69313  0.94376  0.67836  1.0000
  H   H156      1.0  0.70348  0.95415  0.73093  1.0000
  Cu  Cu30      1.0  0.69296  0.94355  0.63537  1.0000
  C   C565      1.0  0.01381  0.73721  0.70174  1.0000
  C   C566      1.0  0.02448  0.72653  0.72309  1.0000
  C   C567      1.0  0.03907  0.71195  0.71531  1.0000
  C   C568      1.0  0.04303  0.70800  0.68616  1.0000
  C   C569      1.0  0.03234  0.71870  0.66472  1.0000
  C   C570      1.0  0.01775  0.73328  0.67258  1.0000
  O   O217      1.0  0.99990  0.75152  0.70936  1.0000
  O   O218      1.0  0.02061  0.73038  0.75168  1.0000
  H   H157      1.0  0.04694  0.70406  0.73116  1.0000
  O   O219      1.0  0.05737  0.69366  0.67862  1.0000
  O   O220      1.0  0.03615  0.71490  0.63603  1.0000
  H   H158      1.0  0.00986  0.74118  0.65676  1.0000
  Cu  Cu31      1.0  0.05765  0.69340  0.63566  1.0000
  C   C571      1.0  0.26386  0.01446  0.70169  1.0000
  C   C572      1.0  0.27452  0.02513  0.72304  1.0000
  C   C573      1.0  0.28910  0.03972  0.71527  1.0000
  C   C574      1.0  0.29305  0.04369  0.68612  1.0000
  C   C575      1.0  0.28236  0.03300  0.66467  1.0000
  C   C576      1.0  0.26778  0.01841  0.67253  1.0000
  O   O221      1.0  0.24955  0.00010  0.70931  1.0000
  O   O222      1.0  0.27068  0.02126  0.75163  1.0000
  H   H159      1.0  0.29698  0.04760  0.73112  1.0000
  O   O223      1.0  0.30738  0.05804  0.67858  1.0000
  O   O224      1.0  0.28615  0.03682  0.63599  1.0000
  H   H160      1.0  0.25989  0.01051  0.65671  1.0000
  Cu  Cu32      1.0  0.30764  0.05833  0.63563  1.0000
  C   C577      1.0  0.51391  0.76454  0.70173  1.0000
  C   C578      1.0  0.52457  0.77520  0.72309  1.0000
  C   C579      1.0  0.53915  0.78980  0.71531  1.0000
  C   C580      1.0  0.54309  0.79377  0.68616  1.0000
  C   C581      1.0  0.53240  0.78309  0.66472  1.0000
  C   C582      1.0  0.51783  0.76849  0.67257  1.0000
  O   O225      1.0  0.49961  0.75021  0.70935  1.0000
  O   O226      1.0  0.52073  0.77133  0.75168  1.0000
  H   H161      1.0  0.54703  0.79768  0.73116  1.0000
  O   O227      1.0  0.55742  0.80813  0.67862  1.0000
  O   O228      1.0  0.53619  0.78691  0.63603  1.0000
  H   H162      1.0  0.50993  0.76059  0.65675  1.0000
  Cu  Cu33      1.0  0.55767  0.80842  0.63567  1.0000
  C   C583      1.0  0.23656  0.51451  0.70168  1.0000
  C   C584      1.0  0.22589  0.52518  0.72303  1.0000
  C   C585      1.0  0.21129  0.53975  0.71526  1.0000
  C   C586      1.0  0.20731  0.54368  0.68611  1.0000
  C   C587      1.0  0.21800  0.53299  0.66466  1.0000
  C   C588      1.0  0.23261  0.51842  0.67252  1.0000
  O   O229      1.0  0.25089  0.50021  0.70930  1.0000
  O   O230      1.0  0.22977  0.52134  0.75162  1.0000
  H   H163      1.0  0.20341  0.54763  0.73110  1.0000
  O   O231      1.0  0.19295  0.55801  0.67857  1.0000
  O   O232      1.0  0.21418  0.53678  0.63598  1.0000
  H   H164      1.0  0.24050  0.51052  0.65670  1.0000
  Cu  Cu34      1.0  0.19266  0.55826  0.63561  1.0000
  C   C589      1.0  0.48655  0.23717  0.70169  1.0000
  C   C590      1.0  0.47588  0.22650  0.72305  1.0000
  C   C591      1.0  0.46131  0.21191  0.71527  1.0000
  C   C592      1.0  0.45736  0.20794  0.68612  1.0000
  C   C593      1.0  0.46806  0.21863  0.66468  1.0000
  C   C594      1.0  0.48263  0.23322  0.67253  1.0000
  O   O233      1.0  0.50085  0.25149  0.70932  1.0000
  O   O234      1.0  0.47972  0.23038  0.75164  1.0000
  H   H165      1.0  0.45342  0.20403  0.73112  1.0000
  O   O235      1.0  0.44303  0.19358  0.67858  1.0000
  O   O236      1.0  0.46427  0.21481  0.63599  1.0000
  H   H166      1.0  0.49053  0.24112  0.65672  1.0000
  Cu  Cu35      1.0  0.44278  0.19330  0.63562  1.0000
  C   C595      1.0  0.76388  0.48718  0.70179  1.0000
  C   C596      1.0  0.77455  0.47650  0.72314  1.0000
  C   C597      1.0  0.78916  0.46194  0.71536  1.0000
  C   C598      1.0  0.79314  0.45801  0.68621  1.0000
  C   C599      1.0  0.78244  0.46871  0.66477  1.0000
  C   C600      1.0  0.76784  0.48327  0.67263  1.0000
  O   O237      1.0  0.74955  0.50147  0.70943  1.0000
  O   O238      1.0  0.77068  0.48033  0.75174  1.0000
  H   H167      1.0  0.79704  0.45405  0.73120  1.0000
  O   O239      1.0  0.80750  0.44369  0.67866  1.0000
  O   O240      1.0  0.78627  0.46493  0.63608  1.0000
  H   H168      1.0  0.75994  0.49117  0.65682  1.0000
  Cu  Cu36      1.0  0.80779  0.44345  0.63570  1.0000
  C   C601      1.0  0.52449  0.22654  0.77761  1.0000
  C   C602      1.0  0.51381  0.23722  0.79895  1.0000
  C   C603      1.0  0.51770  0.23334  0.82812  1.0000
  C   C604      1.0  0.53227  0.21875  0.83603  1.0000
  C   C605      1.0  0.54299  0.20803  0.81465  1.0000
  C   C606      1.0  0.53906  0.21195  0.78548  1.0000
  O   O241      1.0  0.52068  0.23036  0.74899  1.0000
  O   O242      1.0  0.49952  0.25153  0.79123  1.0000
  H   H169      1.0  0.50978  0.24126  0.84388  1.0000
  O   O243      1.0  0.53603  0.21498  0.86472  1.0000
  O   O244      1.0  0.55732  0.19368  0.82226  1.0000
  H   H170      1.0  0.54697  0.20404  0.76969  1.0000
  Cu  Cu37      1.0  0.55750  0.19349  0.86526  1.0000
  C   C607      1.0  0.77449  0.52511  0.77771  1.0000
  C   C608      1.0  0.76381  0.51444  0.79905  1.0000
  C   C609      1.0  0.76770  0.51833  0.82822  1.0000
  C   C610      1.0  0.78227  0.53290  0.83613  1.0000
  C   C611      1.0  0.79299  0.54362  0.81474  1.0000
  C   C612      1.0  0.78906  0.53969  0.78557  1.0000
  O   O245      1.0  0.77067  0.52129  0.74909  1.0000
  O   O246      1.0  0.74952  0.50014  0.79134  1.0000
  H   H171      1.0  0.75978  0.51041  0.84399  1.0000
  O   O247      1.0  0.78605  0.53668  0.86481  1.0000
  O   O248      1.0  0.80733  0.55797  0.82234  1.0000
  H   H172      1.0  0.79697  0.54760  0.76977  1.0000
  Cu  Cu38      1.0  0.80752  0.55816  0.86534  1.0000
  C   C613      1.0  0.47596  0.77516  0.77764  1.0000
  C   C614      1.0  0.48664  0.76448  0.79898  1.0000
  C   C615      1.0  0.48275  0.76837  0.82815  1.0000
  C   C616      1.0  0.46818  0.78295  0.83606  1.0000
  C   C617      1.0  0.45746  0.79368  0.81468  1.0000
  C   C618      1.0  0.46139  0.78975  0.78551  1.0000
  O   O249      1.0  0.47978  0.77135  0.74902  1.0000
  O   O250      1.0  0.50093  0.75018  0.79127  1.0000
  H   H173      1.0  0.49067  0.76044  0.84392  1.0000
  O   O251      1.0  0.46441  0.78673  0.86475  1.0000
  O   O252      1.0  0.44312  0.80803  0.82229  1.0000
  H   H174      1.0  0.45349  0.79766  0.76971  1.0000
  Cu  Cu39      1.0  0.44294  0.80821  0.86528  1.0000
  C   C619      1.0  0.22595  0.47657  0.77760  1.0000
  C   C620      1.0  0.23662  0.48725  0.79893  1.0000
  C   C621      1.0  0.23274  0.48336  0.82811  1.0000
  C   C622      1.0  0.21816  0.46879  0.83602  1.0000
  C   C623      1.0  0.20744  0.45807  0.81464  1.0000
  C   C624      1.0  0.21137  0.46199  0.78547  1.0000
  O   O253      1.0  0.22976  0.48038  0.74897  1.0000
  O   O254      1.0  0.25092  0.50154  0.79122  1.0000
  H   H175      1.0  0.24066  0.49128  0.84387  1.0000
  O   O255      1.0  0.21439  0.46502  0.86471  1.0000
  O   O256      1.0  0.19310  0.44373  0.82225  1.0000
  H   H176      1.0  0.20346  0.45409  0.76967  1.0000
  Cu  Cu40      1.0  0.19291  0.44355  0.86525  1.0000
  C   C625      1.0  0.47583  0.22658  0.27763  1.0000
  C   C626      1.0  0.48651  0.23725  0.29897  1.0000
  C   C627      1.0  0.48262  0.23337  0.32814  1.0000
  C   C628      1.0  0.46804  0.21880  0.33605  1.0000
  C   C629      1.0  0.45732  0.20808  0.31467  1.0000
  C   C630      1.0  0.46125  0.21200  0.28549  1.0000
  O   O257      1.0  0.47965  0.23039  0.24900  1.0000
  O   O258      1.0  0.50081  0.25154  0.29125  1.0000
  H   H177      1.0  0.49054  0.24128  0.34390  1.0000
  O   O259      1.0  0.46426  0.21503  0.36474  1.0000
  O   O260      1.0  0.44297  0.19374  0.32227  1.0000
  H   H178      1.0  0.45334  0.20410  0.26970  1.0000
  Cu  Cu41      1.0  0.44278  0.19356  0.36527  1.0000
  C   C631      1.0  0.77451  0.47654  0.27766  1.0000
  C   C632      1.0  0.76383  0.48722  0.29901  1.0000
  C   C633      1.0  0.76772  0.48333  0.32818  1.0000
  C   C634      1.0  0.78229  0.46875  0.33608  1.0000
  C   C635      1.0  0.79301  0.45802  0.31470  1.0000
  C   C636      1.0  0.78908  0.46195  0.28553  1.0000
  O   O261      1.0  0.77069  0.48035  0.24904  1.0000
  O   O262      1.0  0.74954  0.50151  0.29129  1.0000
  H   H179      1.0  0.75980  0.49125  0.34394  1.0000
  O   O263      1.0  0.78606  0.46497  0.36477  1.0000
  O   O264      1.0  0.80735  0.44368  0.32230  1.0000
  H   H180      1.0  0.79699  0.45405  0.26973  1.0000
  Cu  Cu42      1.0  0.80754  0.44349  0.36530  1.0000
  C   C637      1.0  0.51396  0.76455  0.29891  1.0000
  C   C638      1.0  0.52463  0.77521  0.27756  1.0000
  C   C639      1.0  0.53923  0.78979  0.28534  1.0000
  C   C640      1.0  0.54319  0.79374  0.31449  1.0000
  C   C641      1.0  0.53249  0.78305  0.33593  1.0000
  C   C642      1.0  0.51790  0.76847  0.32807  1.0000
  O   O265      1.0  0.49964  0.75024  0.29128  1.0000
  O   O266      1.0  0.52077  0.77136  0.24897  1.0000
  H   H181      1.0  0.54711  0.79767  0.26949  1.0000
  O   O267      1.0  0.55753  0.80807  0.32203  1.0000
  O   O268      1.0  0.53630  0.78685  0.36462  1.0000
  H   H182      1.0  0.51000  0.76058  0.34389  1.0000
  Cu  Cu43      1.0  0.55781  0.80833  0.36499  1.0000
  C   C643      1.0  0.23657  0.51462  0.29887  1.0000
  C   C644      1.0  0.22589  0.52529  0.27752  1.0000
  C   C645      1.0  0.21131  0.53988  0.28531  1.0000
  C   C646      1.0  0.20735  0.54382  0.31446  1.0000
  C   C647      1.0  0.21805  0.53312  0.33590  1.0000
  C   C648      1.0  0.23264  0.51854  0.32803  1.0000
  O   O269      1.0  0.25088  0.50031  0.29123  1.0000
  O   O270      1.0  0.22975  0.52145  0.24892  1.0000
  H   H183      1.0  0.20343  0.54776  0.26947  1.0000
  O   O271      1.0  0.19301  0.55816  0.32202  1.0000
  O   O272      1.0  0.21425  0.53692  0.36458  1.0000
  H   H184      1.0  0.24053  0.51064  0.34384  1.0000
  Cu  Cu44      1.0  0.19274  0.55841  0.36497  1.0000
  C   C649      1.0  0.47598  0.77517  0.22300  1.0000
  C   C650      1.0  0.48665  0.76449  0.20166  1.0000
  C   C651      1.0  0.48274  0.76835  0.17248  1.0000
  C   C652      1.0  0.46815  0.78291  0.16458  1.0000
  C   C653      1.0  0.45743  0.79364  0.18596  1.0000
  C   C654      1.0  0.46138  0.78973  0.21513  1.0000
  O   O273      1.0  0.47982  0.77138  0.25162  1.0000
  O   O274      1.0  0.50097  0.75021  0.20937  1.0000
  H   H185      1.0  0.49066  0.76043  0.15672  1.0000
  O   O275      1.0  0.46436  0.78666  0.13589  1.0000
  O   O276      1.0  0.44308  0.80797  0.17835  1.0000
  H   H186      1.0  0.45348  0.79764  0.23093  1.0000
  Cu  Cu45      1.0  0.44286  0.80813  0.13536  1.0000
  C   C655      1.0  0.22596  0.47664  0.22295  1.0000
  C   C656      1.0  0.23663  0.48732  0.20160  1.0000
  C   C657      1.0  0.23276  0.48340  0.17243  1.0000
  C   C658      1.0  0.21821  0.46880  0.16453  1.0000
  C   C659      1.0  0.20749  0.45809  0.18592  1.0000
  C   C660      1.0  0.21140  0.46204  0.21509  1.0000
  O   O277      1.0  0.22975  0.48049  0.25157  1.0000
  O   O278      1.0  0.25090  0.50163  0.20931  1.0000
  H   H187      1.0  0.24068  0.49132  0.15667  1.0000
  O   O279      1.0  0.21445  0.46500  0.13585  1.0000
  O   O280      1.0  0.19317  0.44372  0.17833  1.0000
  H   H188      1.0  0.20349  0.45414  0.23089  1.0000
  Cu  Cu46      1.0  0.19300  0.44350  0.13533  1.0000
  C   C661      1.0  0.51382  0.23724  0.20171  1.0000
  C   C662      1.0  0.52448  0.22656  0.22307  1.0000
  C   C663      1.0  0.53908  0.21199  0.21530  1.0000
  C   C664      1.0  0.54306  0.20805  0.18615  1.0000
  C   C665      1.0  0.53237  0.21875  0.16470  1.0000
  C   C666      1.0  0.51777  0.23332  0.17256  1.0000
  O   O281      1.0  0.49949  0.25154  0.20934  1.0000
  O   O282      1.0  0.52060  0.23040  0.25166  1.0000
  H   H189      1.0  0.54696  0.20411  0.23114  1.0000
  O   O283      1.0  0.55741  0.19372  0.17861  1.0000
  O   O284      1.0  0.53619  0.21496  0.13602  1.0000
  H   H190      1.0  0.50988  0.24122  0.15674  1.0000
  Cu  Cu47      1.0  0.55771  0.19348  0.13565  1.0000
  C   C667      1.0  0.76383  0.51452  0.20175  1.0000
  C   C668      1.0  0.77450  0.52519  0.22311  1.0000
  C   C669      1.0  0.78907  0.53980  0.21533  1.0000
  C   C670      1.0  0.79300  0.54377  0.18618  1.0000
  C   C671      1.0  0.78231  0.53308  0.16474  1.0000
  C   C672      1.0  0.76775  0.51848  0.17259  1.0000
  O   O285      1.0  0.74954  0.50019  0.20937  1.0000
  O   O286      1.0  0.77066  0.52131  0.25170  1.0000
  H   H191      1.0  0.79695  0.54767  0.23118  1.0000
  O   O287      1.0  0.80733  0.55813  0.17864  1.0000
  O   O288      1.0  0.78610  0.53691  0.13605  1.0000
  H   H192      1.0  0.75985  0.51059  0.15677  1.0000
  Cu  Cu48      1.0  0.80757  0.55843  0.13569  1.0000
