data_image0
_chemical_formula_structural       Fe18C7NCNCNC3NCNC11NCNC7NHO2H2O2H2O2H2O2HNiC7NCNCNC3NCNC11NCNC7NHO2H2O2H2O2H2O2HNiC7NCNCNC3NCNC11NCNC7NHO2H2O2H2O2H2O2HNiC7NCNCNC3NCNC11NCNC7NHO2H2O2H2O2H2O2HNiC7NCNCNC3NCNC11NCNC7NHO2H2O2H2O2H2O2HNiC7NCNCNC3NCNC11NCNC7NHO2H2O2H2O2H2O2HNiC7NCNCNC3NCNC11NCNC7NHO2H2O2H2O2H2O2HNiC7NCNCNC3NCNC11NCNC7NHO2H2O2H2O2H2O2HNiC7NCNCNC3NCNC11NCNC7NHO2H2O2H2O2H2O2HNiC6HO2HO2C6HO2HO2C6HO2HO2C6HO2HO2C6HO2HO2C6HO2HO2C6HO2HO2C6HO2HO2C6HO2HO2C6O2HO2HCuC6O2HO2HCuC6O2HO2HCuC6O2HO2HCuC6O2HO2HCuC6O2HO2HCuC6O2HO2HCuC6O2HO2HCuC6O2HO2HCuC6O2HO2HCuC6O2HO2HCuC6O2HO2HCuC6O2HO2HCuC6O2HO2HCuC6O2HO2HCuC6O2HO2HCuC6O2HO2HCuC6O2HO2HCuC6O2HO2HCuC6O2HO2HCuC6O2HO2HCuC6O2HO2HCuC6O2HO2HCuC6O2HO2HCuC6O2HO2HCuC6O2HO2HCuC6O2HO2HCuC6O2HO2HCuC6O2HO2HCuC6O2HO2HCuC6O2HO2HCuC6O2HO2HCuC6O2HO2HCuC6O2HO2HCuC6O2HO2HCuC6O2HO2HCu
_chemical_formula_sum              "Fe18 C558 N72 H162 O252 Ni9 Cu36"
_cell_length_a       57.4574
_cell_length_b       57.4573
_cell_length_c       73.854
_cell_angle_alpha    89.994
_cell_angle_beta     90.0059
_cell_angle_gamma    119.992

_space_group_name_H-M_alt    "P 1"
_space_group_IT_number       1

loop_
  _space_group_symop_operation_xyz
  'x, y, z'

loop_
  _atom_site_type_symbol
  _atom_site_label
  _atom_site_symmetry_multiplicity
  _atom_site_fract_x
  _atom_site_fract_y
  _atom_site_fract_z
  _atom_site_occupancy
  Fe  Fe1       1.0  0.44247  0.01240  0.01671  1.0000
  Fe  Fe2       1.0  0.01417  0.44069  0.01664  1.0000
  Fe  Fe3       1.0  0.58594  0.58412  0.01664  1.0000
  Fe  Fe4       1.0  0.58596  0.01249  0.01667  1.0000
  Fe  Fe5       1.0  0.01431  0.58420  0.01670  1.0000
  Fe  Fe6       1.0  0.44254  0.44069  0.01664  1.0000
  Fe  Fe7       1.0  0.10922  0.34585  0.34998  1.0000
  Fe  Fe8       1.0  0.68087  0.77404  0.34998  1.0000
  Fe  Fe9       1.0  0.25258  0.91748  0.35002  1.0000
  Fe  Fe10      1.0  0.25264  0.34586  0.34997  1.0000
  Fe  Fe11      1.0  0.68095  0.91751  0.35003  1.0000
  Fe  Fe12      1.0  0.10916  0.77407  0.35001  1.0000
  Fe  Fe13      1.0  0.77585  0.67914  0.68333  1.0000
  Fe  Fe14      1.0  0.34763  0.10742  0.68336  1.0000
  Fe  Fe15      1.0  0.91928  0.25077  0.68331  1.0000
  Fe  Fe16      1.0  0.91928  0.67912  0.68333  1.0000
  Fe  Fe17      1.0  0.34754  0.25080  0.68332  1.0000
  Fe  Fe18      1.0  0.77586  0.10739  0.68334  1.0000
  C   C1        1.0  0.99264  0.41160  0.55411  1.0000
  C   C2        1.0  0.98191  0.39941  0.57306  1.0000
  C   C3        1.0  0.97408  0.41463  0.58699  1.0000
  C   C4        1.0  0.97694  0.44214  0.58205  1.0000
  C   C5        1.0  0.98764  0.45340  0.56316  1.0000
  C   C6        1.0  0.99511  0.43883  0.54983  1.0000
  C   C7        1.0  0.00486  0.45591  0.53265  1.0000
  N   N1        1.0  0.00359  0.48175  0.53506  1.0000
  C   C8        1.0  0.99272  0.47960  0.55431  1.0000
  N   N2        1.0  0.98745  0.49904  0.56380  1.0000
  C   C9        1.0  0.99282  0.52381  0.55434  1.0000
  N   N3        1.0  0.00369  0.53253  0.53509  1.0000
  C   C10       1.0  0.00501  0.55967  0.53269  1.0000
  C   C11       1.0  0.99531  0.56702  0.54989  1.0000
  C   C12       1.0  0.98779  0.54495  0.56321  1.0000
  N   N4        1.0  0.02463  0.54301  0.49823  1.0000
  C   C13       1.0  0.02319  0.56877  0.50059  1.0000
  N   N5        1.0  0.01402  0.57720  0.51662  1.0000
  C   C14       1.0  0.03303  0.58589  0.48343  1.0000
  C   C15       1.0  0.04071  0.57142  0.47016  1.0000
  C   C16       1.0  0.03569  0.54526  0.47903  1.0000
  C   C17       1.0  0.97708  0.54552  0.58209  1.0000
  C   C18       1.0  0.97426  0.57017  0.58704  1.0000
  C   C19       1.0  0.98216  0.59327  0.57312  1.0000
  C   C20       1.0  0.99288  0.59179  0.55418  1.0000
  C   C21       1.0  0.05151  0.58273  0.45129  1.0000
  C   C22       1.0  0.05426  0.61017  0.44632  1.0000
  C   C23       1.0  0.04625  0.62531  0.46020  1.0000
  C   C24       1.0  0.03543  0.61308  0.47912  1.0000
  N   N6        1.0  0.02466  0.49229  0.49823  1.0000
  C   C25       1.0  0.03573  0.50112  0.47903  1.0000
  N   N7        1.0  0.04120  0.52594  0.46960  1.0000
  C   C26       1.0  0.04077  0.48000  0.47017  1.0000
  C   C27       1.0  0.03307  0.45783  0.48343  1.0000
  C   C28       1.0  0.02320  0.46509  0.50059  1.0000
  C   C29       1.0  0.03553  0.43307  0.47913  1.0000
  C   C30       1.0  0.04643  0.43171  0.46023  1.0000
  C   C31       1.0  0.05443  0.45487  0.44634  1.0000
  C   C32       1.0  0.05161  0.47952  0.45131  1.0000
  N   N8        1.0  0.01394  0.44743  0.51659  1.0000
  H   H1        1.0  0.99801  0.40158  0.54455  1.0000
  O   O1        1.0  0.97945  0.37633  0.57735  1.0000
  O   O2        1.0  0.96508  0.40421  0.60286  1.0000
  H   H2        1.0  0.97175  0.45267  0.59130  1.0000
  H   H3        1.0  0.97185  0.52977  0.59133  1.0000
  O   O3        1.0  0.96523  0.57159  0.60290  1.0000
  O   O4        1.0  0.97976  0.61391  0.57743  1.0000
  H   H4        1.0  0.99829  0.60720  0.54463  1.0000
  H   H5        1.0  0.05684  0.57227  0.44208  1.0000
  O   O5        1.0  0.06329  0.62060  0.43046  1.0000
  O   O6        1.0  0.04864  0.64835  0.45589  1.0000
  H   H6        1.0  0.02994  0.62305  0.48865  1.0000
  H   H7        1.0  0.03003  0.41761  0.48865  1.0000
  O   O7        1.0  0.04893  0.41113  0.45593  1.0000
  O   O8        1.0  0.06352  0.45351  0.43050  1.0000
  H   H8        1.0  0.05693  0.49532  0.44210  1.0000
  Ni  Ni1       1.0  0.01410  0.51237  0.51664  1.0000
  C   C33       1.0  0.43476  0.41184  0.55424  1.0000
  C   C34       1.0  0.43336  0.39959  0.57315  1.0000
  C   C35       1.0  0.45651  0.41473  0.58704  1.0000
  C   C36       1.0  0.48119  0.44218  0.58208  1.0000
  C   C37       1.0  0.48170  0.45350  0.56321  1.0000
  C   C38       1.0  0.45954  0.43904  0.54994  1.0000
  C   C39       1.0  0.46684  0.45615  0.53277  1.0000
  N   N9        1.0  0.49403  0.48190  0.53514  1.0000
  C   C40       1.0  0.50284  0.47966  0.55434  1.0000
  N   N10       1.0  0.52767  0.49898  0.56377  1.0000
  C   C41       1.0  0.54705  0.52377  0.55432  1.0000
  N   N11       1.0  0.54481  0.53257  0.53511  1.0000
  C   C42       1.0  0.57059  0.55974  0.53273  1.0000
  C   C43       1.0  0.58772  0.56701  0.54989  1.0000
  C   C44       1.0  0.57324  0.54488  0.56317  1.0000
  N   N12       1.0  0.53429  0.54310  0.49828  1.0000
  C   C45       1.0  0.56141  0.56893  0.50068  1.0000
  N   N13       1.0  0.57898  0.57740  0.51673  1.0000
  C   C46       1.0  0.56874  0.58600  0.48349  1.0000
  C   C47       1.0  0.54669  0.57142  0.47016  1.0000
  C   C48       1.0  0.52559  0.54524  0.47902  1.0000
  C   C49       1.0  0.58456  0.54541  0.58204  1.0000
  C   C50       1.0  0.61204  0.57006  0.58699  1.0000
  C   C51       1.0  0.62720  0.59318  0.57308  1.0000
  C   C52       1.0  0.61494  0.59177  0.55417  1.0000
  C   C53       1.0  0.54725  0.58269  0.45127  1.0000
  C   C54       1.0  0.57186  0.61020  0.44634  1.0000
  C   C55       1.0  0.59492  0.62542  0.46027  1.0000
  C   C56       1.0  0.59348  0.61323  0.47921  1.0000
  N   N14       1.0  0.48358  0.49236  0.49827  1.0000
  C   C57       1.0  0.48145  0.50107  0.47901  1.0000
  N   N15       1.0  0.50088  0.52580  0.46953  1.0000
  C   C58       1.0  0.45528  0.47996  0.47014  1.0000
  C   C59       1.0  0.44069  0.45792  0.48348  1.0000
  C   C60       1.0  0.45774  0.46526  0.50068  1.0000
  C   C61       1.0  0.41348  0.43316  0.47918  1.0000
  C   C62       1.0  0.40133  0.43168  0.46021  1.0000
  C   C63       1.0  0.41657  0.45476  0.44629  1.0000
  C   C64       1.0  0.44404  0.47940  0.45125  1.0000
  N   N16       1.0  0.44922  0.44774  0.51675  1.0000
  H   H9        1.0  0.41931  0.40189  0.54471  1.0000
  O   O9        1.0  0.41274  0.37654  0.57745  1.0000
  O   O10       1.0  0.45512  0.40427  0.60289  1.0000
  H   H10       1.0  0.49698  0.45265  0.59129  1.0000
  H   H11       1.0  0.57408  0.52964  0.59127  1.0000
  O   O11       1.0  0.62249  0.57147  0.60284  1.0000
  O   O12       1.0  0.65028  0.61377  0.57736  1.0000
  H   H12       1.0  0.62491  0.60721  0.54463  1.0000
  H   H13       1.0  0.53152  0.57215  0.44202  1.0000
  O   O13       1.0  0.57325  0.62064  0.43048  1.0000
  O   O14       1.0  0.61551  0.64851  0.45598  1.0000
  H   H14       1.0  0.60888  0.62325  0.48875  1.0000
  H   H15       1.0  0.40345  0.41776  0.48873  1.0000
  O   O15       1.0  0.37830  0.41105  0.45589  1.0000
  O   O16       1.0  0.40617  0.45334  0.43041  1.0000
  H   H16       1.0  0.45458  0.49513  0.44200  1.0000
  Ni  Ni2       1.0  0.51416  0.51250  0.51671  1.0000
  C   C65       1.0  0.41337  0.99081  0.47923  1.0000
  C   C66       1.0  0.40118  0.98008  0.46029  1.0000
  C   C67       1.0  0.41641  0.97225  0.44636  1.0000
  C   C68       1.0  0.44392  0.97511  0.45130  1.0000
  C   C69       1.0  0.45518  0.98581  0.47019  1.0000
  C   C70       1.0  0.44060  0.99328  0.48352  1.0000
  C   C71       1.0  0.45769  0.00304  0.50070  1.0000
  N   N17       1.0  0.48352  0.00176  0.49829  1.0000
  C   C72       1.0  0.48137  0.99090  0.47904  1.0000
  N   N18       1.0  0.50082  0.98563  0.46955  1.0000
  C   C73       1.0  0.52559  0.99100  0.47901  1.0000
  N   N19       1.0  0.53431  0.00187  0.49826  1.0000
  C   C74       1.0  0.56145  0.00319  0.50066  1.0000
  C   C75       1.0  0.56880  0.99349  0.48346  1.0000
  C   C76       1.0  0.54673  0.98597  0.47014  1.0000
  N   N20       1.0  0.54478  0.02281  0.53512  1.0000
  C   C77       1.0  0.57054  0.02137  0.53276  1.0000
  N   N21       1.0  0.57898  0.01220  0.51673  1.0000
  C   C78       1.0  0.58766  0.03121  0.54992  1.0000
  C   C79       1.0  0.57319  0.03890  0.56319  1.0000
  C   C80       1.0  0.54703  0.03387  0.55432  1.0000
  C   C81       1.0  0.54730  0.97526  0.45126  1.0000
  C   C82       1.0  0.57196  0.97244  0.44631  1.0000
  C   C83       1.0  0.59505  0.98035  0.46023  1.0000
  C   C84       1.0  0.59358  0.99106  0.47918  1.0000
  C   C85       1.0  0.58450  0.04969  0.58206  1.0000
  C   C86       1.0  0.61194  0.05244  0.58703  1.0000
  C   C87       1.0  0.62708  0.04443  0.57315  1.0000
  C   C88       1.0  0.61485  0.03361  0.55423  1.0000
  N   N22       1.0  0.49407  0.02283  0.53511  1.0000
  C   C89       1.0  0.50289  0.03390  0.55431  1.0000
  N   N23       1.0  0.52771  0.03938  0.56375  1.0000
  C   C90       1.0  0.48177  0.03895  0.56318  1.0000
  C   C91       1.0  0.45960  0.03125  0.54991  1.0000
  C   C92       1.0  0.46686  0.02138  0.53275  1.0000
  C   C93       1.0  0.43484  0.03370  0.55421  1.0000
  C   C94       1.0  0.43348  0.04460  0.57312  1.0000
  C   C95       1.0  0.45663  0.05260  0.58700  1.0000
  C   C96       1.0  0.48129  0.04978  0.58204  1.0000
  N   N24       1.0  0.44921  0.01211  0.51675  1.0000
  H   H17       1.0  0.40335  0.99618  0.48879  1.0000
  O   O17       1.0  0.37811  0.97761  0.45600  1.0000
  O   O18       1.0  0.40599  0.96325  0.43049  1.0000
  H   H18       1.0  0.45445  0.96992  0.44205  1.0000
  H   H19       1.0  0.53156  0.97003  0.44202  1.0000
  O   O19       1.0  0.57337  0.96342  0.43045  1.0000
  O   O20       1.0  0.61569  0.97795  0.45593  1.0000
  H   H20       1.0  0.60898  0.99647  0.48872  1.0000
  H   H21       1.0  0.57403  0.05502  0.59127  1.0000
  O   O21       1.0  0.62237  0.06147  0.60289  1.0000
  O   O22       1.0  0.65012  0.04683  0.57746  1.0000
  H   H22       1.0  0.62482  0.02813  0.54471  1.0000
  H   H23       1.0  0.41937  0.02820  0.54470  1.0000
  O   O23       1.0  0.41289  0.04710  0.57741  1.0000
  O   O24       1.0  0.45527  0.06170  0.60285  1.0000
  H   H24       1.0  0.49709  0.05511  0.59124  1.0000
  Ni  Ni3       1.0  0.51415  0.01227  0.51671  1.0000
  C   C97       1.0  0.65974  0.92524  0.88756  1.0000
  C   C98       1.0  0.64890  0.92665  0.90648  1.0000
  C   C99       1.0  0.64088  0.90349  0.92036  1.0000
  C   C100      1.0  0.64366  0.87881  0.91540  1.0000
  C   C101      1.0  0.65447  0.87830  0.89654  1.0000
  C   C102      1.0  0.66216  0.90046  0.88326  1.0000
  C   C103      1.0  0.67197  0.89316  0.86610  1.0000
  N   N25       1.0  0.67053  0.86597  0.86846  1.0000
  C   C104      1.0  0.65948  0.85716  0.88767  1.0000
  N   N26       1.0  0.65397  0.83232  0.89709  1.0000
  C   C105      1.0  0.65938  0.81294  0.88764  1.0000
  N   N27       1.0  0.67042  0.81518  0.86843  1.0000
  C   C106      1.0  0.67182  0.78940  0.86606  1.0000
  C   C107      1.0  0.66195  0.77226  0.88321  1.0000
  C   C108      1.0  0.65430  0.78675  0.89650  1.0000
  N   N28       1.0  0.69146  0.82570  0.83160  1.0000
  C   C109      1.0  0.69018  0.79858  0.83401  1.0000
  N   N29       1.0  0.68108  0.78101  0.85005  1.0000
  C   C110      1.0  0.69991  0.79125  0.81681  1.0000
  C   C111      1.0  0.70739  0.81330  0.80349  1.0000
  C   C112      1.0  0.70231  0.83441  0.81234  1.0000
  C   C113      1.0  0.64351  0.77542  0.91536  1.0000
  C   C114      1.0  0.64069  0.74795  0.92030  1.0000
  C   C115      1.0  0.64864  0.73278  0.90640  1.0000
  C   C116      1.0  0.65949  0.74504  0.88749  1.0000
  C   C117      1.0  0.71809  0.81275  0.78460  1.0000
  C   C118      1.0  0.72100  0.78814  0.77966  1.0000
  C   C119      1.0  0.71316  0.76507  0.79359  1.0000
  C   C120      1.0  0.70241  0.76651  0.81253  1.0000
  N   N30       1.0  0.69144  0.87642  0.83160  1.0000
  C   C121      1.0  0.70228  0.87855  0.81234  1.0000
  N   N31       1.0  0.70758  0.85913  0.80286  1.0000
  C   C122      1.0  0.70734  0.90473  0.80348  1.0000
  C   C123      1.0  0.69988  0.91932  0.81681  1.0000
  C   C124      1.0  0.69018  0.90226  0.83401  1.0000
  C   C125      1.0  0.70233  0.94653  0.81251  1.0000
  C   C126      1.0  0.71300  0.95868  0.79354  1.0000
  C   C127      1.0  0.72085  0.94345  0.77962  1.0000
  C   C128      1.0  0.71801  0.91597  0.78458  1.0000
  N   N32       1.0  0.68117  0.91078  0.85008  1.0000
  H   H25       1.0  0.66524  0.94070  0.87804  1.0000
  O   O25       1.0  0.64647  0.94727  0.91078  1.0000
  O   O26       1.0  0.63181  0.90488  0.93621  1.0000
  H   H26       1.0  0.63833  0.86302  0.92461  1.0000
  H   H27       1.0  0.63822  0.78590  0.92459  1.0000
  O   O27       1.0  0.63165  0.73749  0.93616  1.0000
  O   O28       1.0  0.64615  0.70969  0.91068  1.0000
  H   H28       1.0  0.66496  0.73507  0.87795  1.0000
  H   H29       1.0  0.72329  0.82848  0.77535  1.0000
  O   O29       1.0  0.73004  0.78674  0.76380  1.0000
  O   O30       1.0  0.71566  0.74448  0.78930  1.0000
  H   H30       1.0  0.69703  0.75111  0.82208  1.0000
  H   H31       1.0  0.69697  0.95656  0.82206  1.0000
  O   O31       1.0  0.71542  0.98172  0.78923  1.0000
  O   O32       1.0  0.72983  0.95385  0.76374  1.0000
  H   H32       1.0  0.72320  0.90543  0.77533  1.0000
  Ni  Ni4       1.0  0.68100  0.84584  0.85004  1.0000
  C   C129      1.0  0.08030  0.76632  0.81244  1.0000
  C   C130      1.0  0.06805  0.76492  0.79352  1.0000
  C   C131      1.0  0.08319  0.78807  0.77963  1.0000
  C   C132      1.0  0.11065  0.81275  0.78460  1.0000
  C   C133      1.0  0.12196  0.81326  0.80346  1.0000
  C   C134      1.0  0.10750  0.79110  0.81674  1.0000
  C   C135      1.0  0.12461  0.79840  0.83390  1.0000
  N   N33       1.0  0.15035  0.82559  0.83154  1.0000
  C   C136      1.0  0.14812  0.83440  0.81233  1.0000
  N   N34       1.0  0.16744  0.85923  0.80290  1.0000
  C   C137      1.0  0.19223  0.87861  0.81236  1.0000
  N   N35       1.0  0.20103  0.87637  0.83157  1.0000
  C   C138      1.0  0.22820  0.90214  0.83395  1.0000
  C   C139      1.0  0.23547  0.91928  0.81679  1.0000
  C   C140      1.0  0.21334  0.90480  0.80350  1.0000
  N   N36       1.0  0.21155  0.86585  0.86840  1.0000
  C   C141      1.0  0.23738  0.89296  0.86600  1.0000
  N   N37       1.0  0.24585  0.91053  0.84995  1.0000
  C   C142      1.0  0.25445  0.90029  0.88319  1.0000
  C   C143      1.0  0.23987  0.87824  0.89652  1.0000
  C   C144      1.0  0.21369  0.85714  0.88766  1.0000
  C   C145      1.0  0.21387  0.91612  0.78464  1.0000
  C   C146      1.0  0.23853  0.94360  0.77969  1.0000
  C   C147      1.0  0.26164  0.95876  0.79360  1.0000
  C   C148      1.0  0.26023  0.94650  0.81251  1.0000
  C   C149      1.0  0.25113  0.87880  0.91541  1.0000
  C   C150      1.0  0.27864  0.90340  0.92035  1.0000
  C   C151      1.0  0.29387  0.92647  0.90642  1.0000
  C   C152      1.0  0.28168  0.92503  0.88748  1.0000
  N   N38       1.0  0.16081  0.81514  0.86841  1.0000
  C   C153      1.0  0.16952  0.81300  0.88767  1.0000
  N   N39       1.0  0.19424  0.83243  0.89715  1.0000
  C   C154      1.0  0.14840  0.78683  0.89653  1.0000
  C   C155      1.0  0.12636  0.77224  0.88320  1.0000
  C   C156      1.0  0.13371  0.78930  0.86600  1.0000
  C   C157      1.0  0.10160  0.74503  0.88750  1.0000
  C   C158      1.0  0.10012  0.73289  0.90646  1.0000
  C   C159      1.0  0.12320  0.74812  0.92039  1.0000
  C   C160      1.0  0.14784  0.77559  0.91543  1.0000
  N   N40       1.0  0.11619  0.78078  0.84993  1.0000
  H   H33       1.0  0.07034  0.75087  0.82196  1.0000
  O   O33       1.0  0.04500  0.74430  0.78922  1.0000
  O   O34       1.0  0.07273  0.78669  0.76378  1.0000
  H   H34       1.0  0.12111  0.82854  0.77538  1.0000
  H   H35       1.0  0.19811  0.90564  0.77541  1.0000
  O   O35       1.0  0.23994  0.95405  0.76384  1.0000
  O   O36       1.0  0.28223  0.98184  0.78932  1.0000
  H   H36       1.0  0.27567  0.95647  0.82205  1.0000
  H   H37       1.0  0.24060  0.86307  0.92466  1.0000
  O   O37       1.0  0.28908  0.90480  0.93621  1.0000
  O   O38       1.0  0.31696  0.94705  0.91071  1.0000
  H   H38       1.0  0.29170  0.94043  0.87793  1.0000
  H   H39       1.0  0.08621  0.73501  0.87795  1.0000
  O   O39       1.0  0.07950  0.70985  0.91078  1.0000
  O   O40       1.0  0.12177  0.73771  0.93627  1.0000
  H   H40       1.0  0.16357  0.78613  0.92467  1.0000
  Ni  Ni5       1.0  0.18096  0.84571  0.84997  1.0000
  C   C161      1.0  0.10165  0.36736  0.88742  1.0000
  C   C162      1.0  0.10018  0.37808  0.90637  1.0000
  C   C163      1.0  0.12325  0.38592  0.92030  1.0000
  C   C164      1.0  0.14788  0.38305  0.91536  1.0000
  C   C165      1.0  0.14845  0.37235  0.89647  1.0000
  C   C166      1.0  0.12640  0.36488  0.88314  1.0000
  C   C167      1.0  0.13373  0.35513  0.86596  1.0000
  N   N41       1.0  0.16084  0.35640  0.86837  1.0000
  C   C168      1.0  0.16956  0.36727  0.88762  1.0000
  N   N42       1.0  0.19428  0.37254  0.89711  1.0000
  C   C169      1.0  0.21367  0.36717  0.88765  1.0000
  N   N43       1.0  0.21152  0.35630  0.86840  1.0000
  C   C170      1.0  0.23734  0.35498  0.86600  1.0000
  C   C171      1.0  0.25439  0.36468  0.88320  1.0000
  C   C172      1.0  0.23984  0.37219  0.89652  1.0000
  N   N44       1.0  0.20105  0.33536  0.83154  1.0000
  C   C173      1.0  0.22825  0.33680  0.83391  1.0000
  N   N45       1.0  0.24586  0.34597  0.84993  1.0000
  C   C174      1.0  0.23553  0.32696  0.81674  1.0000
  C   C175      1.0  0.21337  0.31927  0.80347  1.0000
  C   C176      1.0  0.19224  0.32429  0.81234  1.0000
  C   C177      1.0  0.25112  0.38291  0.91540  1.0000
  C   C178      1.0  0.27860  0.38573  0.92035  1.0000
  C   C179      1.0  0.29379  0.37782  0.90643  1.0000
  C   C180      1.0  0.28160  0.36711  0.88748  1.0000
  C   C181      1.0  0.21388  0.30848  0.78460  1.0000
  C   C182      1.0  0.23857  0.30573  0.77963  1.0000
  C   C183      1.0  0.26173  0.31374  0.79351  1.0000
  C   C184      1.0  0.26032  0.32456  0.81243  1.0000
  N   N46       1.0  0.15031  0.33534  0.83155  1.0000
  C   C185      1.0  0.14806  0.32426  0.81235  1.0000
  N   N47       1.0  0.16740  0.31879  0.80291  1.0000
  C   C186      1.0  0.12190  0.31922  0.80348  1.0000
  C   C187      1.0  0.10743  0.32692  0.81675  1.0000
  C   C188      1.0  0.12456  0.33679  0.83390  1.0000
  C   C189      1.0  0.08021  0.32447  0.81245  1.0000
  C   C190      1.0  0.06795  0.31356  0.79354  1.0000
  C   C191      1.0  0.08311  0.30556  0.77966  1.0000
  C   C192      1.0  0.11058  0.30838  0.78462  1.0000
  N   N48       1.0  0.11617  0.34605  0.84991  1.0000
  H   H41       1.0  0.08625  0.36198  0.87787  1.0000
  O   O41       1.0  0.07958  0.38055  0.91066  1.0000
  O   O42       1.0  0.12182  0.39492  0.93617  1.0000
  H   H42       1.0  0.16361  0.38824  0.92461  1.0000
  H   H43       1.0  0.24062  0.38814  0.92464  1.0000
  O   O43       1.0  0.28905  0.39476  0.93621  1.0000
  O   O44       1.0  0.31683  0.38022  0.91073  1.0000
  H   H44       1.0  0.29160  0.36170  0.87794  1.0000
  H   H45       1.0  0.19809  0.30315  0.77539  1.0000
  O   O45       1.0  0.23998  0.29670  0.76377  1.0000
  O   O46       1.0  0.28237  0.31134  0.78920  1.0000
  H   H46       1.0  0.27578  0.33005  0.82195  1.0000
  H   H47       1.0  0.07025  0.32996  0.82196  1.0000
  O   O47       1.0  0.04487  0.31107  0.78925  1.0000
  O   O48       1.0  0.07264  0.29647  0.76381  1.0000
  H   H48       1.0  0.12105  0.30306  0.77542  1.0000
  Ni  Ni6       1.0  0.18095  0.34589  0.84995  1.0000
  C   C193      1.0  0.32642  0.25860  0.22089  1.0000
  C   C194      1.0  0.31557  0.26001  0.23981  1.0000
  C   C195      1.0  0.30756  0.23685  0.25370  1.0000
  C   C196      1.0  0.31033  0.21217  0.24874  1.0000
  C   C197      1.0  0.32114  0.21165  0.22988  1.0000
  C   C198      1.0  0.32883  0.23381  0.21660  1.0000
  C   C199      1.0  0.33864  0.22651  0.19943  1.0000
  N   N49       1.0  0.33719  0.19931  0.20180  1.0000
  C   C200      1.0  0.32615  0.19051  0.22101  1.0000
  N   N50       1.0  0.32064  0.16567  0.23044  1.0000
  C   C201      1.0  0.32604  0.14629  0.22099  1.0000
  N   N51       1.0  0.33708  0.14852  0.20178  1.0000
  C   C202      1.0  0.33848  0.12274  0.19941  1.0000
  C   C203      1.0  0.32861  0.10561  0.21656  1.0000
  C   C204      1.0  0.32096  0.12010  0.22985  1.0000
  N   N52       1.0  0.35813  0.15903  0.16495  1.0000
  C   C205      1.0  0.35684  0.13191  0.16736  1.0000
  N   N53       1.0  0.34774  0.11434  0.18341  1.0000
  C   C206      1.0  0.36657  0.12457  0.15017  1.0000
  C   C207      1.0  0.37404  0.14662  0.13684  1.0000
  C   C208      1.0  0.36897  0.16774  0.14569  1.0000
  C   C209      1.0  0.31017  0.10878  0.24871  1.0000
  C   C210      1.0  0.30735  0.08130  0.25366  1.0000
  C   C211      1.0  0.31529  0.06613  0.23976  1.0000
  C   C212      1.0  0.32615  0.07839  0.22085  1.0000
  C   C213      1.0  0.38475  0.14606  0.11795  1.0000
  C   C214      1.0  0.38765  0.12145  0.11302  1.0000
  C   C215      1.0  0.37981  0.09838  0.12695  1.0000
  C   C216      1.0  0.36906  0.09983  0.14589  1.0000
  N   N54       1.0  0.35811  0.20975  0.16494  1.0000
  C   C217      1.0  0.36894  0.21188  0.14568  1.0000
  N   N55       1.0  0.37424  0.19245  0.13620  1.0000
  C   C218      1.0  0.37401  0.23805  0.13681  1.0000
  C   C219      1.0  0.36656  0.25265  0.15014  1.0000
  C   C220      1.0  0.35685  0.23560  0.16734  1.0000
  C   C221      1.0  0.36901  0.27986  0.14584  1.0000
  C   C222      1.0  0.37968  0.29201  0.12687  1.0000
  C   C223      1.0  0.38752  0.27677  0.11295  1.0000
  C   C224      1.0  0.38468  0.24929  0.11791  1.0000
  N   N56       1.0  0.34784  0.24412  0.18341  1.0000
  H   H49       1.0  0.33191  0.27405  0.21137  1.0000
  O   O49       1.0  0.31315  0.28063  0.24411  1.0000
  O   O50       1.0  0.29849  0.23825  0.26955  1.0000
  H   H50       1.0  0.30500  0.19638  0.25795  1.0000
  H   H51       1.0  0.30488  0.11926  0.25794  1.0000
  O   O51       1.0  0.29830  0.07085  0.26952  1.0000
  O   O52       1.0  0.31280  0.04304  0.24404  1.0000
  H   H52       1.0  0.33161  0.06841  0.21131  1.0000
  H   H53       1.0  0.38995  0.16179  0.10870  1.0000
  O   O53       1.0  0.39669  0.12005  0.09716  1.0000
  O   O54       1.0  0.38231  0.07780  0.12267  1.0000
  H   H54       1.0  0.36368  0.08443  0.15544  1.0000
  H   H55       1.0  0.36364  0.28990  0.15539  1.0000
  O   O55       1.0  0.38209  0.31505  0.12255  1.0000
  O   O56       1.0  0.39650  0.28717  0.09707  1.0000
  H   H56       1.0  0.38987  0.23874  0.10867  1.0000
  Ni  Ni7       1.0  0.34767  0.17918  0.18338  1.0000
  C   C225      1.0  0.76812  0.07852  0.22092  1.0000
  C   C226      1.0  0.76673  0.06627  0.23984  1.0000
  C   C227      1.0  0.78988  0.08141  0.25372  1.0000
  C   C228      1.0  0.81456  0.10887  0.24875  1.0000
  C   C229      1.0  0.81506  0.12018  0.22989  1.0000
  C   C230      1.0  0.79290  0.10571  0.21662  1.0000
  C   C231      1.0  0.80020  0.12282  0.19945  1.0000
  N   N57       1.0  0.82739  0.14857  0.20181  1.0000
  C   C232      1.0  0.83620  0.14634  0.22102  1.0000
  N   N58       1.0  0.86103  0.16566  0.23044  1.0000
  C   C233      1.0  0.88041  0.19045  0.22099  1.0000
  N   N59       1.0  0.87817  0.19925  0.20178  1.0000
  C   C234      1.0  0.90394  0.22642  0.19940  1.0000
  C   C235      1.0  0.92108  0.23369  0.21655  1.0000
  C   C236      1.0  0.90660  0.21156  0.22984  1.0000
  N   N60       1.0  0.86764  0.20977  0.16495  1.0000
  C   C237      1.0  0.89475  0.23560  0.16735  1.0000
  N   N61       1.0  0.91233  0.24407  0.18339  1.0000
  C   C238      1.0  0.90208  0.25267  0.15016  1.0000
  C   C239      1.0  0.88003  0.23809  0.13683  1.0000
  C   C240      1.0  0.85893  0.21190  0.14569  1.0000
  C   C241      1.0  0.91792  0.21209  0.24871  1.0000
  C   C242      1.0  0.94540  0.23675  0.25365  1.0000
  C   C243      1.0  0.96056  0.25986  0.23974  1.0000
  C   C244      1.0  0.94829  0.25846  0.22083  1.0000
  C   C245      1.0  0.88058  0.24935  0.11794  1.0000
  C   C246      1.0  0.90519  0.27686  0.11300  1.0000
  C   C247      1.0  0.92825  0.29209  0.12693  1.0000
  C   C248      1.0  0.92682  0.27990  0.14587  1.0000
  N   N62       1.0  0.81693  0.15903  0.16495  1.0000
  C   C249      1.0  0.81479  0.16773  0.14568  1.0000
  N   N63       1.0  0.83422  0.19246  0.13620  1.0000
  C   C250      1.0  0.78862  0.14662  0.13682  1.0000
  C   C251      1.0  0.77404  0.12457  0.15016  1.0000
  C   C252      1.0  0.79109  0.13192  0.16736  1.0000
  C   C253      1.0  0.74683  0.09981  0.14586  1.0000
  C   C254      1.0  0.73468  0.09833  0.12689  1.0000
  C   C255      1.0  0.74991  0.12141  0.11297  1.0000
  C   C256      1.0  0.77738  0.14605  0.11792  1.0000
  N   N64       1.0  0.78258  0.11440  0.18343  1.0000
  H   H57       1.0  0.75267  0.06856  0.21140  1.0000
  O   O57       1.0  0.74611  0.04322  0.24414  1.0000
  O   O58       1.0  0.78850  0.07095  0.26957  1.0000
  H   H58       1.0  0.83035  0.11933  0.25797  1.0000
  H   H59       1.0  0.90745  0.19633  0.25794  1.0000
  O   O59       1.0  0.95585  0.23816  0.26951  1.0000
  O   O60       1.0  0.98364  0.28046  0.24402  1.0000
  H   H60       1.0  0.95826  0.27389  0.21130  1.0000
  H   H61       1.0  0.86485  0.23881  0.10869  1.0000
  O   O61       1.0  0.90658  0.28729  0.09714  1.0000
  O   O62       1.0  0.94884  0.31517  0.12264  1.0000
  H   H62       1.0  0.94222  0.28992  0.15542  1.0000
  H   H63       1.0  0.73680  0.08442  0.15541  1.0000
  O   O63       1.0  0.71164  0.07771  0.12258  1.0000
  O   O64       1.0  0.73950  0.11998  0.09709  1.0000
  H   H64       1.0  0.78792  0.16178  0.10868  1.0000
  Ni  Ni8       1.0  0.84751  0.17917  0.18338  1.0000
  C   C257      1.0  0.74670  0.65747  0.14588  1.0000
  C   C258      1.0  0.73452  0.64674  0.12693  1.0000
  C   C259      1.0  0.74975  0.63891  0.11300  1.0000
  C   C260      1.0  0.77726  0.64178  0.11795  1.0000
  C   C261      1.0  0.78852  0.65248  0.13684  1.0000
  C   C262      1.0  0.77393  0.65995  0.15017  1.0000
  C   C263      1.0  0.79101  0.66970  0.16735  1.0000
  N   N65       1.0  0.81685  0.66843  0.16495  1.0000
  C   C264      1.0  0.81471  0.65757  0.14569  1.0000
  N   N66       1.0  0.83416  0.65230  0.13621  1.0000
  C   C265      1.0  0.85893  0.65767  0.14567  1.0000
  N   N67       1.0  0.86764  0.66854  0.16492  1.0000
  C   C266      1.0  0.89478  0.66987  0.16733  1.0000
  C   C267      1.0  0.90214  0.66017  0.15013  1.0000
  C   C268      1.0  0.88007  0.65265  0.13681  1.0000
  N   N68       1.0  0.87810  0.68948  0.20178  1.0000
  C   C269      1.0  0.90387  0.68805  0.19942  1.0000
  N   N69       1.0  0.91231  0.67888  0.18340  1.0000
  C   C270      1.0  0.92099  0.69789  0.21659  1.0000
  C   C271      1.0  0.90651  0.70557  0.22986  1.0000
  C   C272      1.0  0.88035  0.70055  0.22098  1.0000
  C   C273      1.0  0.88065  0.64194  0.11792  1.0000
  C   C274      1.0  0.90531  0.63913  0.11298  1.0000
  C   C275      1.0  0.92840  0.64703  0.12690  1.0000
  C   C276      1.0  0.92692  0.65774  0.14585  1.0000
  C   C277      1.0  0.91782  0.71637  0.24872  1.0000
  C   C278      1.0  0.94525  0.71912  0.25370  1.0000
  C   C279      1.0  0.96040  0.71111  0.23982  1.0000
  C   C280      1.0  0.94818  0.70029  0.22090  1.0000
  N   N70       1.0  0.82739  0.68950  0.20177  1.0000
  C   C281      1.0  0.83621  0.70057  0.22097  1.0000
  N   N71       1.0  0.86102  0.70605  0.23041  1.0000
  C   C282      1.0  0.81508  0.70561  0.22983  1.0000
  C   C283      1.0  0.79291  0.69791  0.21656  1.0000
  C   C284      1.0  0.80018  0.68804  0.19941  1.0000
  C   C285      1.0  0.76815  0.70036  0.22086  1.0000
  C   C286      1.0  0.76678  0.71126  0.23976  1.0000
  C   C287      1.0  0.78994  0.71926  0.25365  1.0000
  C   C288      1.0  0.81459  0.71645  0.24869  1.0000
  N   N72       1.0  0.78253  0.67877  0.18340  1.0000
  H   H65       1.0  0.73668  0.66284  0.15543  1.0000
  O   O65       1.0  0.71144  0.64427  0.12264  1.0000
  O   O66       1.0  0.73933  0.62991  0.09714  1.0000
  H   H66       1.0  0.78779  0.63659  0.10870  1.0000
  H   H67       1.0  0.86491  0.63671  0.10868  1.0000
  O   O67       1.0  0.90673  0.63010  0.09712  1.0000
  O   O68       1.0  0.94904  0.64464  0.12260  1.0000
  H   H68       1.0  0.94233  0.66316  0.15539  1.0000
  H   H69       1.0  0.90734  0.72169  0.25793  1.0000
  O   O69       1.0  0.95568  0.72815  0.26956  1.0000
  O   O70       1.0  0.98344  0.71351  0.24414  1.0000
  H   H70       1.0  0.95815  0.69481  0.21138  1.0000
  H   H71       1.0  0.75269  0.69486  0.21134  1.0000
  O   O71       1.0  0.74619  0.71375  0.24406  1.0000
  O   O72       1.0  0.78857  0.72836  0.26950  1.0000
  H   H72       1.0  0.83039  0.72177  0.25790  1.0000
  Ni  Ni9       1.0  0.84747  0.67895  0.18337  1.0000
  C   C289      1.0  0.50018  0.98431  0.01626  1.0000
  C   C290      1.0  0.48609  0.99836  0.01649  1.0000
  C   C291      1.0  0.50013  0.02648  0.01691  1.0000
  C   C292      1.0  0.52826  0.04057  0.01712  1.0000
  C   C293      1.0  0.54235  0.02652  0.01689  1.0000
  C   C294      1.0  0.52831  0.99840  0.01647  1.0000
  H   H73       1.0  0.48965  0.96322  0.01594  1.0000
  O   O73       1.0  0.46077  0.98569  0.01630  1.0000
  O   O74       1.0  0.48745  0.03912  0.01711  1.0000
  H   H74       1.0  0.53879  0.06166  0.01744  1.0000
  O   O75       1.0  0.56767  0.03920  0.01708  1.0000
  O   O76       1.0  0.54099  0.98576  0.01627  1.0000
  C   C295      1.0  0.98612  0.49841  0.01710  1.0000
  C   C296      1.0  0.00010  0.52654  0.01690  1.0000
  C   C297      1.0  0.02834  0.54058  0.01647  1.0000
  C   C298      1.0  0.04237  0.52647  0.01624  1.0000
  C   C299      1.0  0.02828  0.49834  0.01645  1.0000
  C   C300      1.0  0.00010  0.48431  0.01687  1.0000
  H   H75       1.0  0.96503  0.48789  0.01742  1.0000
  O   O77       1.0  0.98758  0.53923  0.01710  1.0000
  O   O78       1.0  0.04102  0.56589  0.01629  1.0000
  H   H76       1.0  0.06347  0.53700  0.01592  1.0000
  O   O79       1.0  0.04091  0.48565  0.01624  1.0000
  O   O80       1.0  0.98747  0.45899  0.01705  1.0000
  C   C301      1.0  0.50017  0.52646  0.01621  1.0000
  C   C302      1.0  0.48611  0.49833  0.01642  1.0000
  C   C303      1.0  0.50018  0.48427  0.01685  1.0000
  C   C304      1.0  0.52831  0.49834  0.01707  1.0000
  C   C305      1.0  0.54237  0.52647  0.01686  1.0000
  C   C306      1.0  0.52830  0.54053  0.01643  1.0000
  H   H77       1.0  0.48962  0.53700  0.01589  1.0000
  O   O81       1.0  0.46079  0.48566  0.01623  1.0000
  O   O82       1.0  0.48753  0.45895  0.01705  1.0000
  H   H78       1.0  0.53887  0.48780  0.01739  1.0000
  O   O83       1.0  0.56769  0.53914  0.01705  1.0000
  O   O84       1.0  0.54096  0.56585  0.01623  1.0000
  C   C307      1.0  0.19499  0.37399  0.35040  1.0000
  C   C308      1.0  0.16686  0.35992  0.35019  1.0000
  C   C309      1.0  0.15280  0.33179  0.34976  1.0000
  C   C310      1.0  0.16687  0.31773  0.34955  1.0000
  C   C311      1.0  0.19500  0.33180  0.34976  1.0000
  C   C312      1.0  0.20906  0.35993  0.35019  1.0000
  H   H79       1.0  0.20553  0.39508  0.35072  1.0000
  O   O85       1.0  0.15419  0.37257  0.35038  1.0000
  O   O86       1.0  0.12748  0.31913  0.34957  1.0000
  H   H80       1.0  0.15633  0.29664  0.34923  1.0000
  O   O87       1.0  0.20767  0.31915  0.34957  1.0000
  O   O88       1.0  0.23438  0.37259  0.35038  1.0000
  C   C313      1.0  0.65279  0.83173  0.35043  1.0000
  C   C314      1.0  0.66683  0.81764  0.35021  1.0000
  C   C315      1.0  0.69496  0.83168  0.34978  1.0000
  C   C316      1.0  0.70904  0.85981  0.34958  1.0000
  C   C317      1.0  0.69499  0.87390  0.34980  1.0000
  C   C318      1.0  0.66687  0.85986  0.35023  1.0000
  H   H81       1.0  0.63169  0.82120  0.35075  1.0000
  O   O89       1.0  0.65416  0.79232  0.35039  1.0000
  O   O90       1.0  0.70760  0.81900  0.34958  1.0000
  H   H82       1.0  0.73013  0.87035  0.34926  1.0000
  O   O91       1.0  0.70766  0.89922  0.34962  1.0000
  O   O92       1.0  0.65422  0.87254  0.35043  1.0000
  C   C319      1.0  0.19493  0.83171  0.35044  1.0000
  C   C320      1.0  0.20900  0.85984  0.35023  1.0000
  C   C321      1.0  0.19494  0.87390  0.34980  1.0000
  C   C322      1.0  0.16680  0.85984  0.34958  1.0000
  C   C323      1.0  0.15273  0.83171  0.34980  1.0000
  C   C324      1.0  0.16680  0.81764  0.35023  1.0000
  H   H83       1.0  0.20547  0.82115  0.35076  1.0000
  O   O93       1.0  0.23432  0.87249  0.35042  1.0000
  O   O94       1.0  0.20760  0.89922  0.34961  1.0000
  H   H84       1.0  0.15626  0.87039  0.34926  1.0000
  O   O95       1.0  0.12742  0.81905  0.34960  1.0000
  O   O96       1.0  0.15413  0.79232  0.35042  1.0000
  C   C325      1.0  0.83351  0.65101  0.68290  1.0000
  C   C326      1.0  0.86164  0.66507  0.68312  1.0000
  C   C327      1.0  0.87570  0.69319  0.68354  1.0000
  C   C328      1.0  0.86163  0.70726  0.68376  1.0000
  C   C329      1.0  0.83350  0.69320  0.68354  1.0000
  C   C330      1.0  0.81944  0.66507  0.68312  1.0000
  H   H85       1.0  0.82296  0.62991  0.68258  1.0000
  O   O97       1.0  0.87430  0.65241  0.68292  1.0000
  O   O98       1.0  0.90102  0.70585  0.68374  1.0000
  H   H86       1.0  0.87218  0.72835  0.68408  1.0000
  O   O99       1.0  0.82084  0.70586  0.68373  1.0000
  O   O100      1.0  0.79412  0.65242  0.68292  1.0000
  C   C331      1.0  0.31946  0.16503  0.68377  1.0000
  C   C332      1.0  0.33350  0.19316  0.68355  1.0000
  C   C333      1.0  0.36163  0.20724  0.68312  1.0000
  C   C334      1.0  0.37571  0.19319  0.68292  1.0000
  C   C335      1.0  0.36167  0.16505  0.68314  1.0000
  C   C336      1.0  0.33354  0.15098  0.68356  1.0000
  H   H87       1.0  0.29836  0.15447  0.68409  1.0000
  O   O101      1.0  0.32083  0.20581  0.68373  1.0000
  O   O102      1.0  0.37427  0.23256  0.68292  1.0000
  H   H88       1.0  0.39680  0.20374  0.68260  1.0000
  O   O103      1.0  0.37434  0.15241  0.68295  1.0000
  O   O104      1.0  0.32090  0.12566  0.68376  1.0000
  C   C337      1.0  0.83351  0.19315  0.68289  1.0000
  C   C338      1.0  0.86164  0.20721  0.68310  1.0000
  C   C339      1.0  0.87570  0.19314  0.68353  1.0000
  C   C340      1.0  0.86162  0.16501  0.68375  1.0000
  C   C341      1.0  0.83349  0.15095  0.68354  1.0000
  C   C342      1.0  0.81944  0.16502  0.68311  1.0000
  H   H89       1.0  0.82297  0.20371  0.68257  1.0000
  O   O105      1.0  0.87431  0.23253  0.68290  1.0000
  O   O106      1.0  0.90102  0.20579  0.68372  1.0000
  H   H90       1.0  0.87217  0.15445  0.68407  1.0000
  O   O107      1.0  0.82082  0.12563  0.68374  1.0000
  O   O108      1.0  0.79412  0.15237  0.68292  1.0000
  C   C343      1.0  0.39381  0.97928  0.99773  1.0000
  C   C344      1.0  0.41468  0.99494  0.98290  1.0000
  C   C345      1.0  0.40610  0.99128  0.96289  1.0000
  C   C346      1.0  0.37663  0.97195  0.95765  1.0000
  C   C347      1.0  0.35566  0.95623  0.97251  1.0000
  C   C348      1.0  0.36433  0.95995  0.99252  1.0000
  O   O109      1.0  0.40223  0.98288  0.01737  1.0000
  O   O110      1.0  0.44359  0.01390  0.98801  1.0000
  H   H91       1.0  0.42159  0.00289  0.95194  1.0000
  O   O111      1.0  0.36829  0.96842  0.93797  1.0000
  O   O112      1.0  0.32667  0.93720  0.96748  1.0000
  H   H92       1.0  0.34887  0.94835  0.00350  1.0000
  Cu  Cu1       1.0  0.32515  0.93932  0.93790  1.0000
  C   C349      1.0  0.03169  0.43034  0.98287  1.0000
  C   C350      1.0  0.04732  0.42512  0.99772  1.0000
  C   C351      1.0  0.06668  0.41498  0.99258  1.0000
  C   C352      1.0  0.07044  0.41003  0.97258  1.0000
  C   C353      1.0  0.05477  0.41526  0.95767  1.0000
  C   C354      1.0  0.03542  0.42541  0.96287  1.0000
  O   O113      1.0  0.01270  0.44029  0.98791  1.0000
  O   O114      1.0  0.04366  0.42996  0.01733  1.0000
  H   H93       1.0  0.07823  0.41113  0.00359  1.0000
  O   O115      1.0  0.08948  0.40006  0.96760  1.0000
  O   O116      1.0  0.05836  0.41044  0.93799  1.0000
  H   H94       1.0  0.02385  0.42927  0.95188  1.0000
  Cu  Cu2       1.0  0.08749  0.39639  0.93805  1.0000
  C   C355      1.0  0.60148  0.63278  0.99768  1.0000
  C   C356      1.0  0.59627  0.61191  0.98284  1.0000
  C   C357      1.0  0.60119  0.62050  0.96283  1.0000
  C   C358      1.0  0.61133  0.64998  0.95760  1.0000
  C   C359      1.0  0.61657  0.67093  0.97246  1.0000
  C   C360      1.0  0.61162  0.66226  0.99247  1.0000
  O   O117      1.0  0.59666  0.62435  0.01731  1.0000
  O   O118      1.0  0.58633  0.58300  0.98795  1.0000
  H   H95       1.0  0.59732  0.60502  0.95188  1.0000
  O   O119      1.0  0.61614  0.65832  0.93792  1.0000
  O   O120      1.0  0.62653  0.69993  0.96743  1.0000
  H   H96       1.0  0.61548  0.67772  0.00345  1.0000
  Cu  Cu3       1.0  0.63017  0.70146  0.93785  1.0000
  C   C361      1.0  0.98106  0.39203  0.03562  1.0000
  C   C362      1.0  0.99672  0.41290  0.05044  1.0000
  C   C363      1.0  0.99306  0.40431  0.07046  1.0000
  C   C364      1.0  0.97373  0.37484  0.07570  1.0000
  C   C365      1.0  0.95801  0.35388  0.06084  1.0000
  C   C366      1.0  0.96172  0.36254  0.04082  1.0000
  O   O121      1.0  0.98465  0.40045  0.01598  1.0000
  O   O122      1.0  0.01568  0.44180  0.04534  1.0000
  H   H97       1.0  0.00468  0.41980  0.08141  1.0000
  O   O123      1.0  0.97020  0.36651  0.09538  1.0000
  O   O124      1.0  0.93898  0.32488  0.06587  1.0000
  H   H98       1.0  0.95013  0.34709  0.02985  1.0000
  Cu  Cu4       1.0  0.94111  0.32337  0.09545  1.0000
  C   C367      1.0  0.61379  0.59447  0.05041  1.0000
  C   C368      1.0  0.63465  0.59968  0.03557  1.0000
  C   C369      1.0  0.66414  0.60983  0.04072  1.0000
  C   C370      1.0  0.67286  0.61478  0.06072  1.0000
  C   C371      1.0  0.65196  0.60956  0.07562  1.0000
  C   C372      1.0  0.62246  0.59941  0.07042  1.0000
  O   O125      1.0  0.58485  0.58451  0.04536  1.0000
  O   O126      1.0  0.62615  0.59484  0.01596  1.0000
  H   H99       1.0  0.67955  0.61367  0.02971  1.0000
  O   O127      1.0  0.70186  0.62475  0.06571  1.0000
  O   O128      1.0  0.66035  0.61438  0.09530  1.0000
  H   H100      1.0  0.60702  0.59555  0.08140  1.0000
  Cu  Cu5       1.0  0.70353  0.62843  0.09526  1.0000
  C   C373      1.0  0.43212  0.02991  0.05047  1.0000
  C   C374      1.0  0.42690  0.04555  0.03563  1.0000
  C   C375      1.0  0.41676  0.06490  0.04076  1.0000
  C   C376      1.0  0.41181  0.06867  0.06076  1.0000
  C   C377      1.0  0.41703  0.05300  0.07567  1.0000
  C   C378      1.0  0.42718  0.03365  0.07047  1.0000
  O   O129      1.0  0.44207  0.01092  0.04543  1.0000
  O   O130      1.0  0.43175  0.04188  0.01601  1.0000
  H   H101      1.0  0.41291  0.07645  0.02975  1.0000
  O   O131      1.0  0.40184  0.08771  0.06574  1.0000
  O   O132      1.0  0.41221  0.05659  0.09535  1.0000
  H   H102      1.0  0.43104  0.02207  0.08147  1.0000
  Cu  Cu6       1.0  0.39817  0.08572  0.09529  1.0000
  C   C379      1.0  0.61386  0.02997  0.05043  1.0000
  C   C380      1.0  0.63469  0.04561  0.03558  1.0000
  C   C381      1.0  0.66420  0.06494  0.04070  1.0000
  C   C382      1.0  0.67295  0.06868  0.06070  1.0000
  C   C383      1.0  0.65207  0.05301  0.07561  1.0000
  C   C384      1.0  0.62256  0.03368  0.07043  1.0000
  O   O133      1.0  0.58491  0.01101  0.04540  1.0000
  O   O134      1.0  0.62616  0.04198  0.01597  1.0000
  H   H103      1.0  0.67959  0.07650  0.02969  1.0000
  O   O135      1.0  0.70196  0.08769  0.06567  1.0000
  O   O136      1.0  0.66050  0.05657  0.09528  1.0000
  H   H104      1.0  0.60714  0.02211  0.08142  1.0000
  Cu  Cu7       1.0  0.70368  0.08567  0.09521  1.0000
  C   C385      1.0  0.98122  0.59978  0.03566  1.0000
  C   C386      1.0  0.99686  0.59456  0.05050  1.0000
  C   C387      1.0  0.99319  0.59951  0.07051  1.0000
  C   C388      1.0  0.97388  0.60969  0.07572  1.0000
  C   C389      1.0  0.95818  0.61493  0.06085  1.0000
  C   C390      1.0  0.96190  0.60996  0.04084  1.0000
  O   O137      1.0  0.98482  0.59493  0.01603  1.0000
  O   O138      1.0  0.01580  0.58458  0.04542  1.0000
  H   H105      1.0  0.00479  0.59563  0.08147  1.0000
  O   O139      1.0  0.97035  0.61452  0.09540  1.0000
  O   O140      1.0  0.93917  0.62493  0.06586  1.0000
  H   H106      1.0  0.95032  0.61383  0.02986  1.0000
  Cu  Cu8       1.0  0.94128  0.62860  0.09544  1.0000
  C   C391      1.0  0.42695  0.39202  0.03560  1.0000
  C   C392      1.0  0.43216  0.41287  0.05044  1.0000
  C   C393      1.0  0.42720  0.40427  0.07044  1.0000
  C   C394      1.0  0.41701  0.37478  0.07567  1.0000
  C   C395      1.0  0.41178  0.35383  0.06080  1.0000
  C   C396      1.0  0.41676  0.36252  0.04079  1.0000
  O   O141      1.0  0.43182  0.40046  0.01597  1.0000
  O   O142      1.0  0.44215  0.44180  0.04534  1.0000
  H   H107      1.0  0.43107  0.41974  0.08140  1.0000
  O   O143      1.0  0.41217  0.36641  0.09534  1.0000
  O   O144      1.0  0.40177  0.32482  0.06581  1.0000
  H   H108      1.0  0.41290  0.34707  0.02981  1.0000
  Cu  Cu9       1.0  0.39808  0.32327  0.09539  1.0000
  C   C397      1.0  0.03180  0.61208  0.98294  1.0000
  C   C398      1.0  0.04744  0.63292  0.99779  1.0000
  C   C399      1.0  0.06676  0.66243  0.99266  1.0000
  C   C400      1.0  0.07049  0.67117  0.97267  1.0000
  C   C401      1.0  0.05482  0.65029  0.95776  1.0000
  C   C402      1.0  0.03550  0.62078  0.96294  1.0000
  O   O145      1.0  0.01284  0.58313  0.98798  1.0000
  O   O146      1.0  0.04381  0.62440  0.01740  1.0000
  H   H109      1.0  0.07832  0.67782  0.00367  1.0000
  O   O147      1.0  0.08950  0.70018  0.96769  1.0000
  O   O148      1.0  0.05837  0.65871  0.93808  1.0000
  H   H110      1.0  0.02392  0.60536  0.95195  1.0000
  Cu  Cu10      1.0  0.08747  0.70189  0.93815  1.0000
  C   C403      1.0  0.41465  0.43030  0.98288  1.0000
  C   C404      1.0  0.39382  0.42510  0.99773  1.0000
  C   C405      1.0  0.36431  0.41493  0.99260  1.0000
  C   C406      1.0  0.35556  0.40993  0.97261  1.0000
  C   C407      1.0  0.37644  0.41513  0.95769  1.0000
  C   C408      1.0  0.40595  0.42531  0.96288  1.0000
  O   O149      1.0  0.44360  0.44028  0.98791  1.0000
  O   O150      1.0  0.40235  0.42999  0.01733  1.0000
  H   H111      1.0  0.34892  0.41109  0.00362  1.0000
  O   O151      1.0  0.32655  0.39993  0.96764  1.0000
  O   O152      1.0  0.36801  0.41027  0.93802  1.0000
  H   H112      1.0  0.42137  0.42916  0.95188  1.0000
  Cu  Cu11      1.0  0.32483  0.39620  0.93809  1.0000
  C   C409      1.0  0.60155  0.97939  0.99771  1.0000
  C   C410      1.0  0.59633  0.99503  0.98287  1.0000
  C   C411      1.0  0.60128  0.99137  0.96286  1.0000
  C   C412      1.0  0.61146  0.97206  0.95764  1.0000
  C   C413      1.0  0.61670  0.95636  0.97251  1.0000
  C   C414      1.0  0.61173  0.96008  0.99252  1.0000
  O   O153      1.0  0.59670  0.98299  0.01734  1.0000
  O   O154      1.0  0.58635  0.01398  0.98796  1.0000
  H   H113      1.0  0.59740  0.00297  0.95190  1.0000
  O   O155      1.0  0.61629  0.96853  0.93797  1.0000
  O   O156      1.0  0.62670  0.93735  0.96750  1.0000
  H   H114      1.0  0.61560  0.94849  0.00351  1.0000
  Cu  Cu12      1.0  0.63037  0.93946  0.93792  1.0000
  C   C415      1.0  0.06056  0.31273  0.33101  1.0000
  C   C416      1.0  0.08142  0.32838  0.31618  1.0000
  C   C417      1.0  0.07283  0.32471  0.29617  1.0000
  C   C418      1.0  0.04336  0.30537  0.29094  1.0000
  C   C419      1.0  0.02241  0.28965  0.30580  1.0000
  C   C420      1.0  0.03108  0.29338  0.32581  1.0000
  O   O157      1.0  0.06899  0.31633  0.35065  1.0000
  O   O158      1.0  0.11033  0.34735  0.32128  1.0000
  H   H115      1.0  0.08831  0.33632  0.28521  1.0000
  O   O159      1.0  0.03501  0.30183  0.27126  1.0000
  O   O160      1.0  0.99341  0.27061  0.30077  1.0000
  H   H116      1.0  0.01563  0.28179  0.33679  1.0000
  Cu  Cu13      1.0  0.99188  0.27272  0.27120  1.0000
  C   C421      1.0  0.69838  0.76368  0.31622  1.0000
  C   C422      1.0  0.71402  0.75846  0.33107  1.0000
  C   C423      1.0  0.73337  0.74832  0.32593  1.0000
  C   C424      1.0  0.73713  0.74336  0.30593  1.0000
  C   C425      1.0  0.72146  0.74859  0.29102  1.0000
  C   C426      1.0  0.70212  0.75874  0.29622  1.0000
  O   O161      1.0  0.67939  0.77364  0.32126  1.0000
  O   O162      1.0  0.71035  0.76331  0.35068  1.0000
  H   H117      1.0  0.74492  0.74447  0.33694  1.0000
  O   O163      1.0  0.75617  0.73339  0.30095  1.0000
  O   O164      1.0  0.72505  0.74377  0.27135  1.0000
  H   H118      1.0  0.69054  0.76260  0.28522  1.0000
  Cu  Cu14      1.0  0.75418  0.72972  0.27140  1.0000
  C   C427      1.0  0.26813  0.96614  0.33104  1.0000
  C   C428      1.0  0.26291  0.94527  0.31621  1.0000
  C   C429      1.0  0.26783  0.95385  0.29620  1.0000
  C   C430      1.0  0.27797  0.98333  0.29096  1.0000
  C   C431      1.0  0.28322  0.00429  0.30582  1.0000
  C   C432      1.0  0.27828  0.99562  0.32584  1.0000
  O   O165      1.0  0.26331  0.95772  0.35068  1.0000
  O   O166      1.0  0.25296  0.91636  0.32132  1.0000
  H   H119      1.0  0.26395  0.93837  0.28524  1.0000
  O   O167      1.0  0.28277  0.99167  0.27128  1.0000
  O   O168      1.0  0.29319  0.03329  0.30079  1.0000
  H   H120      1.0  0.28214  0.01108  0.33681  1.0000
  Cu  Cu15      1.0  0.29682  0.03481  0.27122  1.0000
  C   C433      1.0  0.64775  0.72537  0.36896  1.0000
  C   C434      1.0  0.66341  0.74624  0.38379  1.0000
  C   C435      1.0  0.65975  0.73766  0.40380  1.0000
  C   C436      1.0  0.64042  0.70818  0.40904  1.0000
  C   C437      1.0  0.62470  0.68723  0.39418  1.0000
  C   C438      1.0  0.62841  0.69589  0.37416  1.0000
  O   O169      1.0  0.65135  0.73379  0.34932  1.0000
  O   O170      1.0  0.68237  0.77515  0.37868  1.0000
  H   H121      1.0  0.67136  0.75314  0.41475  1.0000
  O   O171      1.0  0.63688  0.69985  0.42872  1.0000
  O   O172      1.0  0.60566  0.65823  0.39921  1.0000
  H   H122      1.0  0.61682  0.68043  0.36319  1.0000
  Cu  Cu16      1.0  0.60778  0.65671  0.42879  1.0000
  C   C439      1.0  0.28044  0.92782  0.38378  1.0000
  C   C440      1.0  0.30129  0.93303  0.36894  1.0000
  C   C441      1.0  0.33078  0.94317  0.37408  1.0000
  C   C442      1.0  0.33950  0.94813  0.39408  1.0000
  C   C443      1.0  0.31861  0.94291  0.40898  1.0000
  C   C444      1.0  0.28911  0.93277  0.40378  1.0000
  O   O173      1.0  0.25150  0.91788  0.37873  1.0000
  O   O174      1.0  0.29278  0.92818  0.34932  1.0000
  H   H123      1.0  0.34618  0.94701  0.36307  1.0000
  O   O175      1.0  0.36850  0.95809  0.39907  1.0000
  O   O176      1.0  0.32701  0.94773  0.42866  1.0000
  H   H124      1.0  0.27368  0.92891  0.41477  1.0000
  Cu  Cu17      1.0  0.37019  0.96177  0.42861  1.0000
  C   C445      1.0  0.09887  0.36335  0.38374  1.0000
  C   C446      1.0  0.09364  0.37899  0.36890  1.0000
  C   C447      1.0  0.08349  0.39834  0.37405  1.0000
  C   C448      1.0  0.07854  0.40209  0.39405  1.0000
  C   C449      1.0  0.08377  0.38642  0.40895  1.0000
  C   C450      1.0  0.09393  0.36708  0.40375  1.0000
  O   O177      1.0  0.10882  0.34437  0.37870  1.0000
  O   O178      1.0  0.09849  0.37533  0.34929  1.0000
  H   H125      1.0  0.07964  0.40989  0.36304  1.0000
  O   O179      1.0  0.06857  0.42112  0.39903  1.0000
  O   O180      1.0  0.07895  0.39000  0.42863  1.0000
  H   H126      1.0  0.09779  0.35550  0.41474  1.0000
  Cu  Cu18      1.0  0.06489  0.41912  0.42858  1.0000
  C   C451      1.0  0.30132  0.37894  0.36893  1.0000
  C   C452      1.0  0.28046  0.36330  0.38377  1.0000
  C   C453      1.0  0.28907  0.36695  0.40378  1.0000
  C   C454      1.0  0.31856  0.38625  0.40900  1.0000
  C   C455      1.0  0.33950  0.40195  0.39413  1.0000
  C   C456      1.0  0.33081  0.39825  0.37412  1.0000
  O   O181      1.0  0.29287  0.37536  0.34930  1.0000
  O   O182      1.0  0.25154  0.34437  0.37868  1.0000
  H   H127      1.0  0.27359  0.35535  0.41474  1.0000
  O   O183      1.0  0.32692  0.38976  0.42868  1.0000
  O   O184      1.0  0.36851  0.42095  0.39915  1.0000
  H   H128      1.0  0.34626  0.40983  0.36314  1.0000
  Cu  Cu19      1.0  0.37007  0.41882  0.42872  1.0000
  C   C457      1.0  0.64786  0.93309  0.36898  1.0000
  C   C458      1.0  0.66350  0.92787  0.38383  1.0000
  C   C459      1.0  0.65984  0.93282  0.40383  1.0000
  C   C460      1.0  0.64053  0.94300  0.40905  1.0000
  C   C461      1.0  0.62482  0.94824  0.39418  1.0000
  C   C462      1.0  0.62854  0.94327  0.37417  1.0000
  O   O185      1.0  0.65145  0.92824  0.34935  1.0000
  O   O186      1.0  0.68244  0.91789  0.37874  1.0000
  H   H129      1.0  0.67144  0.92894  0.41480  1.0000
  O   O187      1.0  0.63699  0.94783  0.42873  1.0000
  O   O188      1.0  0.60581  0.95824  0.39919  1.0000
  H   H130      1.0  0.61696  0.94713  0.36319  1.0000
  Cu  Cu20      1.0  0.60792  0.96191  0.42876  1.0000
  C   C463      1.0  0.09358  0.72539  0.36896  1.0000
  C   C464      1.0  0.09878  0.74625  0.38380  1.0000
  C   C465      1.0  0.09383  0.73763  0.40381  1.0000
  C   C466      1.0  0.08365  0.70815  0.40903  1.0000
  C   C467      1.0  0.07842  0.68720  0.39416  1.0000
  C   C468      1.0  0.08340  0.69590  0.37415  1.0000
  O   O189      1.0  0.09844  0.73384  0.34933  1.0000
  O   O190      1.0  0.10876  0.77517  0.37872  1.0000
  H   H131      1.0  0.09770  0.75311  0.41477  1.0000
  O   O191      1.0  0.07881  0.69978  0.42871  1.0000
  O   O192      1.0  0.06842  0.65819  0.39917  1.0000
  H   H132      1.0  0.07955  0.68046  0.36317  1.0000
  Cu  Cu21      1.0  0.06474  0.65663  0.42875  1.0000
  C   C469      1.0  0.69844  0.94539  0.31627  1.0000
  C   C470      1.0  0.71408  0.96623  0.33112  1.0000
  C   C471      1.0  0.73340  0.99574  0.32599  1.0000
  C   C472      1.0  0.73714  0.00448  0.30600  1.0000
  C   C473      1.0  0.72147  0.98359  0.29109  1.0000
  C   C474      1.0  0.70215  0.95409  0.29627  1.0000
  O   O193      1.0  0.67947  0.91644  0.32130  1.0000
  O   O194      1.0  0.71044  0.95770  0.35073  1.0000
  H   H133      1.0  0.74496  0.01112  0.33700  1.0000
  O   O195      1.0  0.75615  0.03349  0.30102  1.0000
  O   O196      1.0  0.72503  0.99202  0.27141  1.0000
  H   H134      1.0  0.69057  0.93867  0.28528  1.0000
  Cu  Cu22      1.0  0.75413  0.03520  0.27148  1.0000
  C   C475      1.0  0.08127  0.76367  0.31625  1.0000
  C   C476      1.0  0.06043  0.75847  0.33110  1.0000
  C   C477      1.0  0.03092  0.74829  0.32597  1.0000
  C   C478      1.0  0.02218  0.74328  0.30598  1.0000
  C   C479      1.0  0.04306  0.74850  0.29107  1.0000
  C   C480      1.0  0.07257  0.75868  0.29625  1.0000
  O   O197      1.0  0.11022  0.77366  0.32128  1.0000
  O   O198      1.0  0.06897  0.76336  0.35071  1.0000
  H   H135      1.0  0.01554  0.74445  0.33699  1.0000
  O   O199      1.0  0.99317  0.73328  0.30101  1.0000
  O   O200      1.0  0.03463  0.74363  0.27140  1.0000
  H   H136      1.0  0.08799  0.76253  0.28525  1.0000
  Cu  Cu23      1.0  0.99144  0.72954  0.27147  1.0000
  C   C481      1.0  0.26302  0.32836  0.31622  1.0000
  C   C482      1.0  0.26823  0.31273  0.33107  1.0000
  C   C483      1.0  0.27840  0.29339  0.32595  1.0000
  C   C484      1.0  0.28339  0.28964  0.30596  1.0000
  C   C485      1.0  0.27818  0.30531  0.29104  1.0000
  C   C486      1.0  0.26801  0.32464  0.29622  1.0000
  O   O201      1.0  0.25304  0.34733  0.32124  1.0000
  O   O202      1.0  0.26334  0.31637  0.35068  1.0000
  H   H137      1.0  0.28224  0.28184  0.33697  1.0000
  O   O203      1.0  0.29339  0.27062  0.30099  1.0000
  O   O204      1.0  0.28304  0.30174  0.27137  1.0000
  H   H138      1.0  0.26415  0.33621  0.28522  1.0000
  Cu  Cu24      1.0  0.29711  0.27262  0.27144  1.0000
  C   C487      1.0  0.72719  0.64603  0.66436  1.0000
  C   C488      1.0  0.74806  0.66168  0.64953  1.0000
  C   C489      1.0  0.73947  0.65801  0.62951  1.0000
  C   C490      1.0  0.71000  0.63867  0.62428  1.0000
  C   C491      1.0  0.68904  0.62296  0.63914  1.0000
  C   C492      1.0  0.69771  0.62668  0.65916  1.0000
  O   O205      1.0  0.73562  0.64963  0.68400  1.0000
  O   O206      1.0  0.77697  0.68064  0.65463  1.0000
  H   H139      1.0  0.75495  0.66961  0.61856  1.0000
  O   O207      1.0  0.70166  0.63513  0.60460  1.0000
  O   O208      1.0  0.66005  0.60392  0.63411  1.0000
  H   H140      1.0  0.68226  0.61509  0.67013  1.0000
  Cu  Cu25      1.0  0.65852  0.60603  0.60454  1.0000
  C   C493      1.0  0.36513  0.09706  0.64960  1.0000
  C   C494      1.0  0.38077  0.09184  0.66444  1.0000
  C   C495      1.0  0.40012  0.08169  0.65929  1.0000
  C   C496      1.0  0.40387  0.07673  0.63930  1.0000
  C   C497      1.0  0.38819  0.08195  0.62439  1.0000
  C   C498      1.0  0.36885  0.09211  0.62959  1.0000
  O   O209      1.0  0.34614  0.10701  0.65465  1.0000
  O   O210      1.0  0.37712  0.09669  0.68405  1.0000
  H   H141      1.0  0.41168  0.07785  0.67030  1.0000
  O   O211      1.0  0.42290  0.06676  0.63431  1.0000
  O   O212      1.0  0.39176  0.07712  0.60472  1.0000
  H   H142      1.0  0.35727  0.09596  0.61860  1.0000
  Cu  Cu26      1.0  0.42089  0.06307  0.60476  1.0000
  C   C499      1.0  0.93483  0.29943  0.66434  1.0000
  C   C500      1.0  0.92961  0.27857  0.64951  1.0000
  C   C501      1.0  0.93453  0.28716  0.62950  1.0000
  C   C502      1.0  0.94468  0.31664  0.62427  1.0000
  C   C503      1.0  0.94992  0.33759  0.63913  1.0000
  C   C504      1.0  0.94497  0.32892  0.65914  1.0000
  O   O213      1.0  0.93000  0.29100  0.68398  1.0000
  O   O214      1.0  0.91967  0.24966  0.65461  1.0000
  H   H143      1.0  0.93066  0.27168  0.61854  1.0000
  O   O215      1.0  0.94948  0.32499  0.60459  1.0000
  O   O216      1.0  0.95989  0.36660  0.63411  1.0000
  H   H144      1.0  0.94884  0.34437  0.67012  1.0000
  Cu  Cu27      1.0  0.96353  0.36813  0.60453  1.0000
  C   C505      1.0  0.31451  0.05876  0.70233  1.0000
  C   C506      1.0  0.33016  0.07962  0.71716  1.0000
  C   C507      1.0  0.32648  0.07103  0.73718  1.0000
  C   C508      1.0  0.30715  0.04156  0.74241  1.0000
  C   C509      1.0  0.29144  0.02061  0.72754  1.0000
  C   C510      1.0  0.29517  0.02928  0.70753  1.0000
  O   O217      1.0  0.31812  0.06718  0.68269  1.0000
  O   O218      1.0  0.34913  0.10853  0.71206  1.0000
  H   H145      1.0  0.33809  0.08651  0.74813  1.0000
  O   O219      1.0  0.30360  0.03322  0.76209  1.0000
  O   O220      1.0  0.27240  0.99161  0.73257  1.0000
  H   H146      1.0  0.28358  0.01382  0.69655  1.0000
  Cu  Cu28      1.0  0.27450  0.99008  0.76215  1.0000
  C   C511      1.0  0.94714  0.26112  0.71707  1.0000
  C   C512      1.0  0.96799  0.26633  0.70223  1.0000
  C   C513      1.0  0.99749  0.27648  0.70737  1.0000
  C   C514      1.0  0.00621  0.28144  0.72737  1.0000
  C   C515      1.0  0.98531  0.27623  0.74227  1.0000
  C   C516      1.0  0.95581  0.26607  0.73707  1.0000
  O   O221      1.0  0.91820  0.25117  0.71202  1.0000
  O   O222      1.0  0.95948  0.26148  0.68262  1.0000
  H   H147      1.0  0.01289  0.28032  0.69636  1.0000
  O   O223      1.0  0.03521  0.29141  0.73236  1.0000
  O   O224      1.0  0.99372  0.28105  0.76195  1.0000
  H   H148      1.0  0.94038  0.26222  0.74806  1.0000
  Cu  Cu29      1.0  0.03689  0.29510  0.76190  1.0000
  C   C517      1.0  0.76550  0.69664  0.71709  1.0000
  C   C518      1.0  0.76028  0.71229  0.70225  1.0000
  C   C519      1.0  0.75013  0.73163  0.70739  1.0000
  C   C520      1.0  0.74517  0.73539  0.72739  1.0000
  C   C521      1.0  0.75040  0.71971  0.74229  1.0000
  C   C522      1.0  0.76055  0.70037  0.73710  1.0000
  O   O225      1.0  0.77546  0.67766  0.71205  1.0000
  O   O226      1.0  0.76513  0.70863  0.68264  1.0000
  H   H149      1.0  0.74628  0.74319  0.69638  1.0000
  O   O227      1.0  0.73520  0.75442  0.73238  1.0000
  O   O228      1.0  0.74557  0.72329  0.76197  1.0000
  H   H150      1.0  0.76441  0.68879  0.74809  1.0000
  Cu  Cu30      1.0  0.73152  0.75242  0.76192  1.0000
  C   C523      1.0  0.96795  0.71221  0.70229  1.0000
  C   C524      1.0  0.94710  0.69656  0.71713  1.0000
  C   C525      1.0  0.95571  0.70022  0.73714  1.0000
  C   C526      1.0  0.98520  0.71952  0.74235  1.0000
  C   C527      1.0  0.00614  0.73523  0.72748  1.0000
  C   C528      1.0  0.99745  0.73152  0.70748  1.0000
  O   O229      1.0  0.95951  0.70862  0.68265  1.0000
  O   O230      1.0  0.91818  0.67763  0.71204  1.0000
  H   H151      1.0  0.94024  0.68862  0.74810  1.0000
  O   O231      1.0  0.99356  0.72305  0.76203  1.0000
  O   O232      1.0  0.03515  0.75424  0.73250  1.0000
  H   H152      1.0  0.01289  0.74311  0.69649  1.0000
  Cu  Cu31      1.0  0.03671  0.75211  0.76207  1.0000
  C   C529      1.0  0.31445  0.26638  0.70227  1.0000
  C   C530      1.0  0.33009  0.26117  0.71712  1.0000
  C   C531      1.0  0.32644  0.26613  0.73712  1.0000
  C   C532      1.0  0.30714  0.27632  0.74234  1.0000
  C   C533      1.0  0.29142  0.28155  0.72747  1.0000
  C   C534      1.0  0.29513  0.27657  0.70746  1.0000
  O   O233      1.0  0.31803  0.26152  0.68264  1.0000
  O   O234      1.0  0.34903  0.25119  0.71203  1.0000
  H   H153      1.0  0.33805  0.26226  0.74808  1.0000
  O   O235      1.0  0.30362  0.28116  0.76202  1.0000
  O   O236      1.0  0.27242  0.29156  0.73249  1.0000
  H   H154      1.0  0.28354  0.28043  0.69648  1.0000
  Cu  Cu32      1.0  0.27455  0.29524  0.76206  1.0000
  C   C535      1.0  0.76546  0.07951  0.71709  1.0000
  C   C536      1.0  0.76026  0.05867  0.70224  1.0000
  C   C537      1.0  0.75007  0.02916  0.70737  1.0000
  C   C538      1.0  0.74507  0.02041  0.72736  1.0000
  C   C539      1.0  0.75028  0.04129  0.74227  1.0000
  C   C540      1.0  0.76047  0.07080  0.73709  1.0000
  O   O237      1.0  0.77545  0.10846  0.71206  1.0000
  O   O238      1.0  0.76515  0.06721  0.68263  1.0000
  H   H155      1.0  0.74624  0.01377  0.69635  1.0000
  O   O239      1.0  0.73507  0.99140  0.73233  1.0000
  O   O240      1.0  0.74542  0.03286  0.76194  1.0000
  H   H156      1.0  0.76432  0.08622  0.74809  1.0000
  Cu  Cu33      1.0  0.73133  0.98967  0.76187  1.0000
  C   C541      1.0  0.36503  0.27869  0.64956  1.0000
  C   C542      1.0  0.38066  0.29952  0.66442  1.0000
  C   C543      1.0  0.39999  0.32903  0.65929  1.0000
  C   C544      1.0  0.40374  0.33778  0.63930  1.0000
  C   C545      1.0  0.38808  0.31690  0.62439  1.0000
  C   C546      1.0  0.36875  0.28739  0.62957  1.0000
  O   O241      1.0  0.34607  0.24974  0.65459  1.0000
  O   O242      1.0  0.37701  0.29098  0.68403  1.0000
  H   H157      1.0  0.41153  0.34442  0.67031  1.0000
  O   O243      1.0  0.42275  0.36679  0.63433  1.0000
  O   O244      1.0  0.39165  0.32533  0.60471  1.0000
  H   H158      1.0  0.35719  0.27197  0.61857  1.0000
  Cu  Cu34      1.0  0.42075  0.36852  0.60479  1.0000
  C   C547      1.0  0.72718  0.09180  0.66438  1.0000
  C   C548      1.0  0.74803  0.09701  0.64954  1.0000
  C   C549      1.0  0.73941  0.09204  0.62953  1.0000
  C   C550      1.0  0.70992  0.08186  0.62432  1.0000
  C   C551      1.0  0.68898  0.07663  0.63919  1.0000
  C   C552      1.0  0.69768  0.08162  0.65919  1.0000
  O   O245      1.0  0.73563  0.09668  0.68401  1.0000
  O   O246      1.0  0.77695  0.10699  0.65463  1.0000
  H   H159      1.0  0.75489  0.09591  0.61857  1.0000
  O   O247      1.0  0.70155  0.07701  0.60464  1.0000
  O   O248      1.0  0.65997  0.06663  0.63417  1.0000
  H   H160      1.0  0.68224  0.07777  0.67018  1.0000
  Cu  Cu35      1.0  0.65841  0.06293  0.60460  1.0000
  C   C553      1.0  0.92967  0.66163  0.64957  1.0000
  C   C554      1.0  0.93488  0.64600  0.66442  1.0000
  C   C555      1.0  0.94506  0.62666  0.65929  1.0000
  C   C556      1.0  0.95006  0.62292  0.63930  1.0000
  C   C557      1.0  0.94484  0.63859  0.62439  1.0000
  C   C558      1.0  0.93466  0.65792  0.62957  1.0000
  O   O249      1.0  0.91969  0.68060  0.65460  1.0000
  O   O250      1.0  0.93000  0.64964  0.68403  1.0000
  H   H161      1.0  0.94890  0.61511  0.67031  1.0000
  O   O251      1.0  0.96006  0.60391  0.63433  1.0000
  O   O252      1.0  0.94970  0.63503  0.60471  1.0000
  H   H162      1.0  0.93080  0.66949  0.61857  1.0000
  Cu  Cu36      1.0  0.96379  0.60593  0.60478  1.0000
