data_image0
_chemical_formula_structural       Fe18C7NCNCNC3NCNC11NCNC7NHO2H2O2H2O2H2O2HNiC7NCNCNC3NCNC11NCNC7NHO2H2O2H2O2H2O2HNiC7NCNCNC3NCNC11NCNC7NHO2H2O2H2O2H2O2HNiC7NCNCNC3NCNC11NCNC7NHO2H2O2H2O2H2O2HNiC7NCNCNC3NCNC11NCNC7NHO2H2O2H2O2H2O2HNiC7NCNCNC3NCNC11NCNC7NHO2H2O2H2O2H2O2HNiC7NCNCNC3NCNC11NCNC7NHO2H2O2H2O2H2O2HNiC7NCNCNC3NCNC11NCNC7NHO2H2O2H2O2H2O2HNiC7NCNCNC3NCNC11NCNC7NHO2H2O2H2O2H2O2HNiC6HO2HO2C6HO2HO2C6HO2HO2C6HO2HO2C6HO2HO2C6HO2HO2C6HO2HO2C6HO2HO2C6HO2HO2C6O2HO2HCuC6O2HO2HCuC6O2HO2HCuC6O2HO2HCuC6O2HO2HCuC6O2HO2HCuC6O2HO2HCuC6O2HO2HCuC6O2HO2HCuC6O2HO2HCuC6O2HO2HCuC6O2HO2HCuC6O2HO2HCuC6O2HO2HCuC6O2HO2HCuC6O2HO2HCuC6O2HO2HCuC6O2HO2HCuC6O2HO2HCuC6O2HO2HCuC6O2HO2HCuC6O2HO2HCuC6O2HO2HCuC6O2HO2HCuC6O2HO2HCuC6O2HO2HCuC6O2HO2HCuC6O2HO2HCuC6O2HO2HCuC6O2HO2HCuC6O2HO2HCuC6O2HO2HCuC6O2HO2HCuC6O2HO2HCuC6O2HO2HCuC6O2HO2HCu
_chemical_formula_sum              "Fe18 C558 N72 H162 O252 Ni9 Cu36"
_cell_length_a       57.4575
_cell_length_b       57.4575
_cell_length_c       73.8572
_cell_angle_alpha    89.9958
_cell_angle_beta     90.0035
_cell_angle_gamma    119.995

_space_group_name_H-M_alt    "P 1"
_space_group_IT_number       1

loop_
  _space_group_symop_operation_xyz
  'x, y, z'

loop_
  _atom_site_type_symbol
  _atom_site_label
  _atom_site_symmetry_multiplicity
  _atom_site_fract_x
  _atom_site_fract_y
  _atom_site_fract_z
  _atom_site_occupancy
  Fe  Fe1       1.0  0.44263  0.01221  0.01675  1.0000
  Fe  Fe2       1.0  0.01436  0.44055  0.01676  1.0000
  Fe  Fe3       1.0  0.58613  0.58400  0.01676  1.0000
  Fe  Fe4       1.0  0.58608  0.01225  0.01672  1.0000
  Fe  Fe5       1.0  0.01439  0.58400  0.01678  1.0000
  Fe  Fe6       1.0  0.44272  0.44060  0.01677  1.0000
  Fe  Fe7       1.0  0.10931  0.34557  0.35007  1.0000
  Fe  Fe8       1.0  0.68103  0.77388  0.35011  1.0000
  Fe  Fe9       1.0  0.25279  0.91736  0.35010  1.0000
  Fe  Fe10      1.0  0.25275  0.34557  0.35008  1.0000
  Fe  Fe11      1.0  0.68105  0.91734  0.35011  1.0000
  Fe  Fe12      1.0  0.10941  0.77391  0.35006  1.0000
  Fe  Fe13      1.0  0.77600  0.67893  0.68339  1.0000
  Fe  Fe14      1.0  0.34769  0.10721  0.68343  1.0000
  Fe  Fe15      1.0  0.91952  0.25069  0.68342  1.0000
  Fe  Fe16      1.0  0.91944  0.67894  0.68340  1.0000
  Fe  Fe17      1.0  0.34775  0.25067  0.68346  1.0000
  Fe  Fe18      1.0  0.77604  0.10728  0.68345  1.0000
  C   C1        1.0  0.97695  0.54520  0.58207  1.0000
  C   C2        1.0  0.97419  0.56988  0.58705  1.0000
  C   C3        1.0  0.98220  0.59304  0.57316  1.0000
  C   C4        1.0  0.99303  0.59163  0.55424  1.0000
  C   C5        1.0  0.99542  0.56684  0.54993  1.0000
  C   C6        1.0  0.98774  0.54468  0.56320  1.0000
  C   C7        1.0  0.99275  0.52354  0.55433  1.0000
  N   N1        1.0  0.00379  0.53235  0.53513  1.0000
  C   C8        1.0  0.00524  0.55955  0.53276  1.0000
  N   N2        1.0  0.01450  0.57720  0.51675  1.0000
  C   C9        1.0  0.02362  0.56874  0.50071  1.0000
  N   N3        1.0  0.02489  0.54289  0.49831  1.0000
  C   C10       1.0  0.03580  0.54506  0.47907  1.0000
  C   C11       1.0  0.04093  0.57127  0.47022  1.0000
  C   C12       1.0  0.03343  0.58584  0.48354  1.0000
  N   N4        1.0  0.02483  0.49214  0.49829  1.0000
  C   C13       1.0  0.03571  0.50086  0.47905  1.0000
  N   N5        1.0  0.04106  0.52561  0.46958  1.0000
  C   C14       1.0  0.04081  0.47976  0.47020  1.0000
  C   C15       1.0  0.03334  0.45771  0.48353  1.0000
  C   C16       1.0  0.02358  0.46504  0.50071  1.0000
  C   C17       1.0  0.03592  0.61307  0.47924  1.0000
  C   C18       1.0  0.04670  0.62527  0.46031  1.0000
  C   C19       1.0  0.05460  0.61007  0.44640  1.0000
  C   C20       1.0  0.05170  0.58256  0.45135  1.0000
  C   C21       1.0  0.03583  0.43296  0.47925  1.0000
  C   C22       1.0  0.04653  0.43149  0.46030  1.0000
  C   C23       1.0  0.05437  0.45455  0.44637  1.0000
  C   C24       1.0  0.05151  0.47919  0.45131  1.0000
  N   N6        1.0  0.00387  0.48166  0.53514  1.0000
  C   C25       1.0  0.00535  0.45592  0.53279  1.0000
  N   N7        1.0  0.01457  0.44751  0.51678  1.0000
  C   C26       1.0  0.99556  0.43882  0.54996  1.0000
  C   C27       1.0  0.98786  0.45328  0.56323  1.0000
  C   C28       1.0  0.99282  0.47942  0.55435  1.0000
  C   C29       1.0  0.97710  0.44199  0.58211  1.0000
  C   C30       1.0  0.97440  0.41457  0.58709  1.0000
  C   C31       1.0  0.98240  0.39942  0.57319  1.0000
  C   C32       1.0  0.99320  0.41165  0.55427  1.0000
  N   N8        1.0  0.98731  0.49874  0.56377  1.0000
  H   H1        1.0  0.97164  0.52941  0.59129  1.0000
  O   O1        1.0  0.96514  0.57127  0.60290  1.0000
  O   O2        1.0  0.97979  0.61367  0.57747  1.0000
  H   H2        1.0  0.99853  0.60709  0.54472  1.0000
  H   H3        1.0  0.03052  0.62309  0.48878  1.0000
  O   O3        1.0  0.04917  0.64834  0.45600  1.0000
  O   O4        1.0  0.06368  0.62051  0.43055  1.0000
  H   H4        1.0  0.05693  0.57203  0.44212  1.0000
  H   H5        1.0  0.03046  0.41757  0.48880  1.0000
  O   O5        1.0  0.04897  0.41087  0.45600  1.0000
  O   O6        1.0  0.06335  0.45313  0.43050  1.0000
  H   H6        1.0  0.05672  0.49492  0.44206  1.0000
  H   H7        1.0  0.97178  0.45245  0.59132  1.0000
  O   O7        1.0  0.96541  0.40414  0.60296  1.0000
  O   O8        1.0  0.98002  0.37639  0.57751  1.0000
  H   H8        1.0  0.99870  0.40170  0.54474  1.0000
  Ni  Ni1       1.0  0.01430  0.51224  0.51671  1.0000
  C   C33       1.0  0.44399  0.47934  0.45141  1.0000
  C   C34       1.0  0.41654  0.45465  0.44644  1.0000
  C   C35       1.0  0.40140  0.43150  0.46032  1.0000
  C   C36       1.0  0.41364  0.43290  0.47925  1.0000
  C   C37       1.0  0.44082  0.45769  0.48356  1.0000
  C   C38       1.0  0.45529  0.47985  0.47028  1.0000
  C   C39       1.0  0.48145  0.50099  0.47915  1.0000
  N   N9        1.0  0.48368  0.49218  0.49836  1.0000
  C   C40       1.0  0.45793  0.46499  0.50073  1.0000
  N   N10       1.0  0.44954  0.44734  0.51673  1.0000
  C   C41       1.0  0.46712  0.45580  0.53278  1.0000
  N   N11       1.0  0.49423  0.48164  0.53518  1.0000
  C   C42       1.0  0.50298  0.47947  0.55442  1.0000
  C   C43       1.0  0.48190  0.45326  0.56326  1.0000
  C   C44       1.0  0.45983  0.43869  0.54995  1.0000
  N   N12       1.0  0.54493  0.53239  0.53519  1.0000
  C   C45       1.0  0.54709  0.52367  0.55444  1.0000
  N   N13       1.0  0.52769  0.49892  0.56391  1.0000
  C   C46       1.0  0.57329  0.54477  0.56329  1.0000
  C   C47       1.0  0.58786  0.56682  0.54996  1.0000
  C   C48       1.0  0.57078  0.55949  0.53278  1.0000
  C   C49       1.0  0.43509  0.41146  0.55424  1.0000
  C   C50       1.0  0.43368  0.39926  0.57318  1.0000
  C   C51       1.0  0.45678  0.41447  0.58709  1.0000
  C   C52       1.0  0.48139  0.44198  0.58214  1.0000
  C   C53       1.0  0.61509  0.59156  0.55424  1.0000
  C   C54       1.0  0.62727  0.59303  0.57319  1.0000
  C   C55       1.0  0.61205  0.56997  0.58712  1.0000
  C   C56       1.0  0.58456  0.54533  0.58218  1.0000
  N   N14       1.0  0.53444  0.54287  0.49834  1.0000
  C   C57       1.0  0.56166  0.56860  0.50070  1.0000
  N   N15       1.0  0.57929  0.57701  0.51671  1.0000
  C   C58       1.0  0.56896  0.58570  0.48353  1.0000
  C   C59       1.0  0.54680  0.57125  0.47025  1.0000
  C   C60       1.0  0.52564  0.54511  0.47914  1.0000
  C   C61       1.0  0.54734  0.58254  0.45138  1.0000
  C   C62       1.0  0.57206  0.60996  0.44640  1.0000
  C   C63       1.0  0.59520  0.62510  0.46029  1.0000
  C   C64       1.0  0.59377  0.61287  0.47922  1.0000
  N   N16       1.0  0.50080  0.52579  0.46971  1.0000
  H   H9        1.0  0.45446  0.49513  0.44220  1.0000
  O   O9        1.0  0.40610  0.45327  0.43058  1.0000
  O   O10       1.0  0.37836  0.41087  0.45601  1.0000
  H   H10       1.0  0.40368  0.41745  0.48877  1.0000
  H   H11       1.0  0.41967  0.40145  0.54471  1.0000
  O   O11       1.0  0.41308  0.37620  0.57749  1.0000
  O   O12       1.0  0.45542  0.40402  0.60294  1.0000
  H   H12       1.0  0.49714  0.45250  0.59137  1.0000
  H   H13       1.0  0.62512  0.60695  0.54468  1.0000
  O   O13       1.0  0.65033  0.61365  0.57749  1.0000
  O   O14       1.0  0.62246  0.57140  0.60299  1.0000
  H   H14       1.0  0.57404  0.52960  0.59143  1.0000
  H   H15       1.0  0.53156  0.57208  0.44216  1.0000
  O   O15       1.0  0.57349  0.62038  0.43053  1.0000
  O   O16       1.0  0.61585  0.64813  0.45598  1.0000
  H   H16       1.0  0.60922  0.62282  0.48874  1.0000
  Ni  Ni2       1.0  0.51430  0.51229  0.51678  1.0000
  C   C65       1.0  0.58481  0.04984  0.58210  1.0000
  C   C66       1.0  0.61226  0.05261  0.58708  1.0000
  C   C67       1.0  0.62740  0.04460  0.57319  1.0000
  C   C68       1.0  0.61517  0.03377  0.55427  1.0000
  C   C69       1.0  0.58798  0.03137  0.54996  1.0000
  C   C70       1.0  0.57351  0.03906  0.56323  1.0000
  C   C71       1.0  0.54735  0.03404  0.55436  1.0000
  N   N17       1.0  0.54512  0.02300  0.53515  1.0000
  C   C72       1.0  0.57087  0.02155  0.53279  1.0000
  N   N18       1.0  0.57927  0.01230  0.51678  1.0000
  C   C73       1.0  0.56169  0.00318  0.50074  1.0000
  N   N19       1.0  0.53457  0.00190  0.49833  1.0000
  C   C74       1.0  0.52583  0.99099  0.47910  1.0000
  C   C75       1.0  0.54691  0.98586  0.47025  1.0000
  C   C76       1.0  0.56898  0.99336  0.48357  1.0000
  N   N20       1.0  0.48387  0.00195  0.49832  1.0000
  C   C77       1.0  0.48171  0.99107  0.47907  1.0000
  N   N21       1.0  0.50112  0.98572  0.46960  1.0000
  C   C78       1.0  0.45551  0.98597  0.47022  1.0000
  C   C79       1.0  0.44093  0.99344  0.48355  1.0000
  C   C80       1.0  0.45802  0.00320  0.50073  1.0000
  C   C81       1.0  0.59372  0.99087  0.47928  1.0000
  C   C82       1.0  0.59514  0.98009  0.46034  1.0000
  C   C83       1.0  0.57204  0.97219  0.44644  1.0000
  C   C84       1.0  0.54743  0.97509  0.45138  1.0000
  C   C85       1.0  0.41370  0.99095  0.47927  1.0000
  C   C86       1.0  0.40152  0.98025  0.46032  1.0000
  C   C87       1.0  0.41675  0.97241  0.44639  1.0000
  C   C88       1.0  0.44424  0.97527  0.45133  1.0000
  N   N22       1.0  0.49435  0.02292  0.53517  1.0000
  C   C89       1.0  0.46714  0.02144  0.53281  1.0000
  N   N23       1.0  0.44950  0.01221  0.51680  1.0000
  C   C90       1.0  0.45983  0.03123  0.54998  1.0000
  C   C91       1.0  0.48199  0.03893  0.56325  1.0000
  C   C92       1.0  0.50316  0.03397  0.55437  1.0000
  C   C93       1.0  0.48144  0.04968  0.58213  1.0000
  C   C94       1.0  0.45672  0.05238  0.58711  1.0000
  C   C95       1.0  0.43358  0.04438  0.57321  1.0000
  C   C96       1.0  0.43501  0.03359  0.55429  1.0000
  N   N24       1.0  0.52800  0.03949  0.56380  1.0000
  H   H17       1.0  0.57433  0.05516  0.59131  1.0000
  O   O17       1.0  0.62270  0.06166  0.60293  1.0000
  O   O18       1.0  0.65045  0.04701  0.57751  1.0000
  H   H18       1.0  0.62513  0.02827  0.54475  1.0000
  H   H19       1.0  0.60914  0.99628  0.48881  1.0000
  O   O19       1.0  0.61575  0.97763  0.45604  1.0000
  O   O20       1.0  0.57340  0.96311  0.43058  1.0000
  H   H20       1.0  0.53167  0.96986  0.44215  1.0000
  H   H21       1.0  0.40368  0.99632  0.48882  1.0000
  O   O21       1.0  0.37847  0.97780  0.45602  1.0000
  O   O22       1.0  0.40634  0.96343  0.43052  1.0000
  H   H22       1.0  0.45477  0.97006  0.44209  1.0000
  H   H23       1.0  0.49723  0.05501  0.59135  1.0000
  O   O23       1.0  0.45529  0.06138  0.60297  1.0000
  O   O24       1.0  0.41293  0.04677  0.57752  1.0000
  H   H24       1.0  0.41956  0.02809  0.54476  1.0000
  Ni  Ni3       1.0  0.51450  0.01249  0.51673  1.0000
  C   C97       1.0  0.71809  0.81248  0.78461  1.0000
  C   C98       1.0  0.72098  0.78786  0.77967  1.0000
  C   C99       1.0  0.71314  0.76479  0.79360  1.0000
  C   C100      1.0  0.70240  0.76624  0.81255  1.0000
  C   C101      1.0  0.69990  0.79097  0.81683  1.0000
  C   C102      1.0  0.70736  0.81302  0.80350  1.0000
  C   C103      1.0  0.70228  0.83413  0.81236  1.0000
  N   N25       1.0  0.69141  0.82540  0.83161  1.0000
  C   C104      1.0  0.69014  0.79829  0.83401  1.0000
  N   N26       1.0  0.68112  0.78076  0.85008  1.0000
  C   C105      1.0  0.67197  0.78920  0.86612  1.0000
  N   N27       1.0  0.67053  0.81496  0.86848  1.0000
  C   C106      1.0  0.65953  0.81275  0.88770  1.0000
  C   C107      1.0  0.65456  0.78662  0.89658  1.0000
  C   C108      1.0  0.66221  0.77212  0.88330  1.0000
  N   N28       1.0  0.67047  0.86566  0.86847  1.0000
  C   C109      1.0  0.65944  0.85686  0.88768  1.0000
  N   N29       1.0  0.65402  0.83207  0.89712  1.0000
  C   C110      1.0  0.65444  0.87801  0.89655  1.0000
  C   C111      1.0  0.66213  0.90017  0.88328  1.0000
  C   C112      1.0  0.67194  0.89287  0.86611  1.0000
  C   C113      1.0  0.65980  0.74493  0.88762  1.0000
  C   C114      1.0  0.64901  0.73272  0.90655  1.0000
  C   C115      1.0  0.64107  0.74791  0.92044  1.0000
  C   C116      1.0  0.64382  0.77535  0.91546  1.0000
  C   C117      1.0  0.65973  0.92496  0.88758  1.0000
  C   C118      1.0  0.64886  0.92635  0.90649  1.0000
  C   C119      1.0  0.64085  0.90320  0.92037  1.0000
  C   C120      1.0  0.64364  0.87853  0.91541  1.0000
  N   N30       1.0  0.69149  0.87617  0.83163  1.0000
  C   C121      1.0  0.69025  0.90202  0.83405  1.0000
  N   N31       1.0  0.68120  0.91052  0.85010  1.0000
  C   C122      1.0  0.70002  0.91912  0.81687  1.0000
  C   C123      1.0  0.70748  0.90454  0.80354  1.0000
  C   C124      1.0  0.70235  0.87832  0.81238  1.0000
  C   C125      1.0  0.71823  0.91584  0.78466  1.0000
  C   C126      1.0  0.72117  0.94337  0.77975  1.0000
  C   C127      1.0  0.71332  0.95859  0.79368  1.0000
  C   C128      1.0  0.70254  0.94637  0.81261  1.0000
  N   N32       1.0  0.70761  0.85887  0.80289  1.0000
  H   H25       1.0  0.72329  0.82821  0.77537  1.0000
  O   O25       1.0  0.72999  0.78645  0.76381  1.0000
  O   O26       1.0  0.71563  0.74420  0.78931  1.0000
  H   H26       1.0  0.69703  0.75084  0.82210  1.0000
  H   H27       1.0  0.66525  0.73494  0.87809  1.0000
  O   O27       1.0  0.64656  0.70966  0.91086  1.0000
  O   O28       1.0  0.63207  0.73750  0.93632  1.0000
  H   H28       1.0  0.63854  0.78584  0.92468  1.0000
  H   H29       1.0  0.66523  0.94041  0.87806  1.0000
  O   O29       1.0  0.64641  0.94696  0.91078  1.0000
  O   O30       1.0  0.63176  0.90457  0.93622  1.0000
  H   H30       1.0  0.63833  0.86274  0.92463  1.0000
  H   H31       1.0  0.72343  0.90531  0.77541  1.0000
  O   O31       1.0  0.73024  0.95384  0.76390  1.0000
  O   O32       1.0  0.71582  0.98168  0.78940  1.0000
  H   H32       1.0  0.69717  0.95639  0.82217  1.0000
  Ni  Ni4       1.0  0.68093  0.84553  0.85003  1.0000
  C   C129      1.0  0.11065  0.81270  0.78475  1.0000
  C   C130      1.0  0.08320  0.78801  0.77977  1.0000
  C   C131      1.0  0.06806  0.76486  0.79366  1.0000
  C   C132      1.0  0.08029  0.76626  0.81258  1.0000
  C   C133      1.0  0.10748  0.79105  0.81689  1.0000
  C   C134      1.0  0.12195  0.81321  0.80362  1.0000
  C   C135      1.0  0.14810  0.83435  0.81249  1.0000
  N   N33       1.0  0.15033  0.82554  0.83170  1.0000
  C   C136      1.0  0.12458  0.79834  0.83406  1.0000
  N   N34       1.0  0.11619  0.78069  0.85007  1.0000
  C   C137      1.0  0.13377  0.78915  0.86611  1.0000
  N   N35       1.0  0.16088  0.81499  0.86852  1.0000
  C   C138      1.0  0.16963  0.81282  0.88776  1.0000
  C   C139      1.0  0.14855  0.78660  0.89660  1.0000
  C   C140      1.0  0.12648  0.77204  0.88328  1.0000
  N   N36       1.0  0.21158  0.86574  0.86853  1.0000
  C   C141      1.0  0.21374  0.85702  0.88778  1.0000
  N   N37       1.0  0.19434  0.83226  0.89725  1.0000
  C   C142      1.0  0.23994  0.87811  0.89663  1.0000
  C   C143      1.0  0.25451  0.90016  0.88330  1.0000
  C   C144      1.0  0.23743  0.89284  0.86612  1.0000
  C   C145      1.0  0.10174  0.74481  0.88758  1.0000
  C   C146      1.0  0.10032  0.73261  0.90651  1.0000
  C   C147      1.0  0.12342  0.74781  0.92042  1.0000
  C   C148      1.0  0.14803  0.77532  0.91547  1.0000
  C   C149      1.0  0.28174  0.92490  0.88758  1.0000
  C   C150      1.0  0.29392  0.92637  0.90653  1.0000
  C   C151      1.0  0.27869  0.90331  0.92046  1.0000
  C   C152      1.0  0.25120  0.87867  0.91552  1.0000
  N   N38       1.0  0.20110  0.87622  0.83168  1.0000
  C   C153      1.0  0.22831  0.90196  0.83404  1.0000
  N   N39       1.0  0.24594  0.91036  0.85005  1.0000
  C   C154      1.0  0.23562  0.91906  0.81687  1.0000
  C   C155      1.0  0.21346  0.90460  0.80359  1.0000
  C   C156      1.0  0.19229  0.87847  0.81248  1.0000
  C   C157      1.0  0.21400  0.91590  0.78472  1.0000
  C   C158      1.0  0.23872  0.94332  0.77974  1.0000
  C   C159      1.0  0.26186  0.95846  0.79363  1.0000
  C   C160      1.0  0.26043  0.94623  0.81256  1.0000
  N   N40       1.0  0.16745  0.85915  0.80305  1.0000
  H   H33       1.0  0.12112  0.82849  0.77553  1.0000
  O   O33       1.0  0.07276  0.78663  0.76392  1.0000
  O   O34       1.0  0.04502  0.74423  0.78934  1.0000
  H   H34       1.0  0.07033  0.75080  0.82210  1.0000
  H   H35       1.0  0.08632  0.73480  0.87804  1.0000
  O   O35       1.0  0.07972  0.70954  0.91082  1.0000
  O   O36       1.0  0.12206  0.73736  0.93627  1.0000
  H   H36       1.0  0.16378  0.78584  0.92471  1.0000
  H   H37       1.0  0.29177  0.94029  0.87803  1.0000
  O   O37       1.0  0.31698  0.94699  0.91083  1.0000
  O   O38       1.0  0.28911  0.90474  0.93634  1.0000
  H   H38       1.0  0.24068  0.86294  0.92477  1.0000
  H   H39       1.0  0.19822  0.90544  0.77550  1.0000
  O   O39       1.0  0.24015  0.95374  0.76387  1.0000
  O   O40       1.0  0.28251  0.98149  0.78932  1.0000
  H   H40       1.0  0.27588  0.95618  0.82209  1.0000
  Ni  Ni5       1.0  0.18095  0.84564  0.85012  1.0000
  C   C161      1.0  0.25149  0.38318  0.91544  1.0000
  C   C162      1.0  0.27894  0.38594  0.92041  1.0000
  C   C163      1.0  0.29409  0.37793  0.90653  1.0000
  C   C164      1.0  0.28185  0.36710  0.88761  1.0000
  C   C165      1.0  0.25467  0.36471  0.88330  1.0000
  C   C166      1.0  0.24020  0.37240  0.89657  1.0000
  C   C167      1.0  0.21404  0.36738  0.88769  1.0000
  N   N41       1.0  0.21181  0.35634  0.86849  1.0000
  C   C168      1.0  0.23756  0.35489  0.86613  1.0000
  N   N42       1.0  0.24596  0.34563  0.85012  1.0000
  C   C169      1.0  0.22838  0.33651  0.83408  1.0000
  N   N43       1.0  0.20126  0.33524  0.83167  1.0000
  C   C170      1.0  0.19252  0.32432  0.81243  1.0000
  C   C171      1.0  0.21360  0.31919  0.80359  1.0000
  C   C172      1.0  0.23567  0.32670  0.81691  1.0000
  N   N44       1.0  0.15056  0.33529  0.83165  1.0000
  C   C173      1.0  0.14840  0.32441  0.81240  1.0000
  N   N45       1.0  0.16781  0.31906  0.80294  1.0000
  C   C174      1.0  0.12220  0.31931  0.80355  1.0000
  C   C175      1.0  0.10763  0.32678  0.81688  1.0000
  C   C176      1.0  0.12471  0.33654  0.83406  1.0000
  C   C177      1.0  0.26041  0.32421  0.81261  1.0000
  C   C178      1.0  0.26183  0.31343  0.79368  1.0000
  C   C179      1.0  0.23873  0.30553  0.77977  1.0000
  C   C180      1.0  0.21412  0.30843  0.78472  1.0000
  C   C181      1.0  0.08039  0.32429  0.81260  1.0000
  C   C182      1.0  0.06822  0.31359  0.79365  1.0000
  C   C183      1.0  0.08345  0.30575  0.77972  1.0000
  C   C184      1.0  0.11094  0.30860  0.78467  1.0000
  N   N46       1.0  0.16104  0.35625  0.86850  1.0000
  C   C185      1.0  0.13382  0.35478  0.86614  1.0000
  N   N47       1.0  0.11619  0.34555  0.85013  1.0000
  C   C186      1.0  0.12651  0.36457  0.88331  1.0000
  C   C187      1.0  0.14867  0.37227  0.89659  1.0000
  C   C188      1.0  0.16984  0.36730  0.88771  1.0000
  C   C189      1.0  0.14813  0.38302  0.91546  1.0000
  C   C190      1.0  0.12341  0.38572  0.92044  1.0000
  C   C191      1.0  0.10026  0.37772  0.90654  1.0000
  C   C192      1.0  0.10170  0.36693  0.88762  1.0000
  N   N48       1.0  0.19468  0.37282  0.89713  1.0000
  H   H41       1.0  0.24102  0.38850  0.92465  1.0000
  O   O41       1.0  0.28938  0.39500  0.93627  1.0000
  O   O42       1.0  0.31713  0.38035  0.91085  1.0000
  H   H42       1.0  0.29181  0.36160  0.87809  1.0000
  H   H43       1.0  0.27583  0.32961  0.82215  1.0000
  O   O43       1.0  0.28244  0.31096  0.78938  1.0000
  O   O44       1.0  0.24010  0.29645  0.76392  1.0000
  H   H44       1.0  0.19837  0.30320  0.77548  1.0000
  H   H45       1.0  0.07037  0.32966  0.82215  1.0000
  O   O45       1.0  0.04516  0.31114  0.78935  1.0000
  O   O46       1.0  0.07304  0.29677  0.76385  1.0000
  H   H46       1.0  0.12146  0.30340  0.77542  1.0000
  H   H47       1.0  0.16391  0.38835  0.92468  1.0000
  O   O47       1.0  0.12198  0.39471  0.93631  1.0000
  O   O48       1.0  0.07962  0.38010  0.91085  1.0000
  H   H48       1.0  0.08625  0.36142  0.87809  1.0000
  Ni  Ni6       1.0  0.18119  0.34582  0.85007  1.0000
  C   C193      1.0  0.38522  0.24932  0.11807  1.0000
  C   C194      1.0  0.38798  0.27677  0.11310  1.0000
  C   C195      1.0  0.37997  0.29191  0.12698  1.0000
  C   C196      1.0  0.36914  0.27968  0.14590  1.0000
  C   C197      1.0  0.36675  0.25249  0.15022  1.0000
  C   C198      1.0  0.37443  0.23802  0.13694  1.0000
  C   C199      1.0  0.36941  0.21186  0.14582  1.0000
  N   N49       1.0  0.35837  0.20963  0.16502  1.0000
  C   C200      1.0  0.35693  0.23538  0.16738  1.0000
  N   N50       1.0  0.34767  0.24378  0.18339  1.0000
  C   C201      1.0  0.33855  0.22620  0.19943  1.0000
  N   N51       1.0  0.33728  0.19908  0.20184  1.0000
  C   C202      1.0  0.32636  0.19034  0.22108  1.0000
  C   C203      1.0  0.32123  0.21142  0.22992  1.0000
  C   C204      1.0  0.32874  0.23349  0.21661  1.0000
  N   N52       1.0  0.33733  0.14838  0.20186  1.0000
  C   C205      1.0  0.32644  0.14622  0.22110  1.0000
  N   N53       1.0  0.32109  0.16562  0.23057  1.0000
  C   C206      1.0  0.32134  0.12002  0.22995  1.0000
  C   C207      1.0  0.32881  0.10544  0.21663  1.0000
  C   C208      1.0  0.33857  0.12252  0.19944  1.0000
  C   C209      1.0  0.32625  0.25823  0.22090  1.0000
  C   C210      1.0  0.31546  0.25965  0.23983  1.0000
  C   C211      1.0  0.30756  0.23654  0.25374  1.0000
  C   C212      1.0  0.31046  0.21193  0.24879  1.0000
  C   C213      1.0  0.32632  0.07821  0.22091  1.0000
  C   C214      1.0  0.31562  0.06603  0.23985  1.0000
  C   C215      1.0  0.30778  0.08126  0.25378  1.0000
  C   C216      1.0  0.31064  0.10875  0.24884  1.0000
  N   N54       1.0  0.35829  0.15886  0.16501  1.0000
  C   C217      1.0  0.35681  0.13164  0.16736  1.0000
  N   N55       1.0  0.34759  0.11401  0.18338  1.0000
  C   C218      1.0  0.36660  0.12433  0.15019  1.0000
  C   C219      1.0  0.37430  0.14650  0.13692  1.0000
  C   C220      1.0  0.36934  0.16767  0.14580  1.0000
  C   C221      1.0  0.38506  0.14595  0.11805  1.0000
  C   C222      1.0  0.38776  0.12123  0.11307  1.0000
  C   C223      1.0  0.37975  0.09809  0.12696  1.0000
  C   C224      1.0  0.36896  0.09952  0.14589  1.0000
  N   N56       1.0  0.37486  0.19251  0.13638  1.0000
  H   H49       1.0  0.39053  0.23884  0.10886  1.0000
  O   O49       1.0  0.39704  0.28721  0.09724  1.0000
  O   O50       1.0  0.38239  0.31496  0.12267  1.0000
  H   H50       1.0  0.36364  0.28964  0.15542  1.0000
  H   H51       1.0  0.33165  0.27365  0.21136  1.0000
  O   O51       1.0  0.31300  0.28025  0.24414  1.0000
  O   O52       1.0  0.29848  0.23791  0.26959  1.0000
  H   H52       1.0  0.30523  0.19618  0.25803  1.0000
  H   H53       1.0  0.33169  0.06818  0.21135  1.0000
  O   O53       1.0  0.31317  0.04297  0.24415  1.0000
  O   O54       1.0  0.29880  0.07085  0.26966  1.0000
  H   H54       1.0  0.30543  0.11927  0.25809  1.0000
  H   H55       1.0  0.39038  0.16174  0.10883  1.0000
  O   O55       1.0  0.39675  0.11980  0.09720  1.0000
  O   O56       1.0  0.38214  0.07744  0.12265  1.0000
  H   H56       1.0  0.36346  0.08407  0.15541  1.0000
  Ni  Ni7       1.0  0.34786  0.17901  0.18344  1.0000
  C   C225      1.0  0.77730  0.14602  0.11807  1.0000
  C   C226      1.0  0.74986  0.12134  0.11310  1.0000
  C   C227      1.0  0.73472  0.09819  0.12698  1.0000
  C   C228      1.0  0.74695  0.09959  0.14590  1.0000
  C   C229      1.0  0.77413  0.12438  0.15021  1.0000
  C   C230      1.0  0.78860  0.14654  0.13694  1.0000
  C   C231      1.0  0.81476  0.16767  0.14581  1.0000
  N   N57       1.0  0.81699  0.15887  0.16502  1.0000
  C   C232      1.0  0.79124  0.13167  0.16738  1.0000
  N   N58       1.0  0.78285  0.11402  0.18339  1.0000
  C   C233      1.0  0.80043  0.12248  0.19943  1.0000
  N   N59       1.0  0.82754  0.14832  0.20184  1.0000
  C   C234      1.0  0.83629  0.14615  0.22108  1.0000
  C   C235      1.0  0.81521  0.11994  0.22992  1.0000
  C   C236      1.0  0.79314  0.10537  0.21661  1.0000
  N   N60       1.0  0.87824  0.19907  0.20185  1.0000
  C   C237      1.0  0.88040  0.19035  0.22110  1.0000
  N   N61       1.0  0.86100  0.16559  0.23057  1.0000
  C   C238      1.0  0.90660  0.21145  0.22995  1.0000
  C   C239      1.0  0.92117  0.23349  0.21662  1.0000
  C   C240      1.0  0.90409  0.22617  0.19944  1.0000
  C   C241      1.0  0.76840  0.07814  0.22090  1.0000
  C   C242      1.0  0.76698  0.06594  0.23984  1.0000
  C   C243      1.0  0.79008  0.08115  0.25374  1.0000
  C   C244      1.0  0.81469  0.10865  0.24880  1.0000
  C   C245      1.0  0.94840  0.25824  0.22090  1.0000
  C   C246      1.0  0.96058  0.25971  0.23985  1.0000
  C   C247      1.0  0.94535  0.23664  0.25378  1.0000
  C   C248      1.0  0.91786  0.21201  0.24884  1.0000
  N   N62       1.0  0.86776  0.20955  0.16500  1.0000
  C   C249      1.0  0.89497  0.23529  0.16736  1.0000
  N   N63       1.0  0.91260  0.24369  0.18337  1.0000
  C   C250      1.0  0.90228  0.25239  0.15019  1.0000
  C   C251      1.0  0.88012  0.23793  0.13692  1.0000
  C   C252      1.0  0.85895  0.21180  0.14580  1.0000
  C   C253      1.0  0.88066  0.24923  0.11804  1.0000
  C   C254      1.0  0.90538  0.27664  0.11306  1.0000
  C   C255      1.0  0.92852  0.29178  0.12695  1.0000
  C   C256      1.0  0.92708  0.27956  0.14588  1.0000
  N   N64       1.0  0.83411  0.19248  0.13637  1.0000
  H   H57       1.0  0.78778  0.16181  0.10886  1.0000
  O   O57       1.0  0.73942  0.11995  0.09724  1.0000
  O   O58       1.0  0.71167  0.07756  0.12267  1.0000
  H   H58       1.0  0.73699  0.08413  0.15542  1.0000
  H   H59       1.0  0.75298  0.06813  0.21136  1.0000
  O   O59       1.0  0.74638  0.04288  0.24414  1.0000
  O   O60       1.0  0.78872  0.07070  0.26960  1.0000
  H   H60       1.0  0.83044  0.11918  0.25803  1.0000
  H   H61       1.0  0.95843  0.27363  0.21135  1.0000
  O   O61       1.0  0.98364  0.28032  0.24415  1.0000
  O   O62       1.0  0.95576  0.23807  0.26966  1.0000
  H   H62       1.0  0.90734  0.19628  0.25809  1.0000
  H   H63       1.0  0.86487  0.23876  0.10882  1.0000
  O   O63       1.0  0.90681  0.28707  0.09719  1.0000
  O   O64       1.0  0.94916  0.31482  0.12264  1.0000
  H   H64       1.0  0.94254  0.28951  0.15541  1.0000
  Ni  Ni8       1.0  0.84761  0.17897  0.18344  1.0000
  C   C257      1.0  0.81463  0.71602  0.24888  1.0000
  C   C258      1.0  0.79001  0.71890  0.25383  1.0000
  C   C259      1.0  0.76694  0.71107  0.23990  1.0000
  C   C260      1.0  0.76838  0.70033  0.22095  1.0000
  C   C261      1.0  0.79312  0.69783  0.21667  1.0000
  C   C262      1.0  0.81517  0.70529  0.23000  1.0000
  C   C263      1.0  0.83628  0.70021  0.22114  1.0000
  N   N65       1.0  0.82756  0.68935  0.20189  1.0000
  C   C264      1.0  0.80045  0.68807  0.19948  1.0000
  N   N66       1.0  0.78291  0.67906  0.18342  1.0000
  C   C265      1.0  0.79136  0.66990  0.16738  1.0000
  N   N67       1.0  0.81711  0.66846  0.16502  1.0000
  C   C266      1.0  0.81490  0.65747  0.14580  1.0000
  C   C267      1.0  0.78877  0.65250  0.13692  1.0000
  C   C268      1.0  0.77427  0.66014  0.15020  1.0000
  N   N68       1.0  0.86781  0.66841  0.16503  1.0000
  C   C269      1.0  0.85902  0.65738  0.14582  1.0000
  N   N69       1.0  0.83423  0.65195  0.13637  1.0000
  C   C270      1.0  0.88017  0.65238  0.13695  1.0000
  C   C271      1.0  0.90232  0.66007  0.15022  1.0000
  C   C272      1.0  0.89503  0.66988  0.16739  1.0000
  C   C273      1.0  0.74708  0.65773  0.14588  1.0000
  C   C274      1.0  0.73488  0.64694  0.12695  1.0000
  C   C275      1.0  0.75006  0.63900  0.11305  1.0000
  C   C276      1.0  0.77750  0.64176  0.11804  1.0000
  C   C277      1.0  0.92711  0.65767  0.14592  1.0000
  C   C278      1.0  0.92851  0.64681  0.12701  1.0000
  C   C279      1.0  0.90535  0.63880  0.11312  1.0000
  C   C280      1.0  0.88068  0.64158  0.11808  1.0000
  N   N70       1.0  0.87832  0.68942  0.20187  1.0000
  C   C281      1.0  0.90418  0.68818  0.19945  1.0000
  N   N71       1.0  0.91268  0.67914  0.18339  1.0000
  C   C282      1.0  0.92127  0.69796  0.21662  1.0000
  C   C283      1.0  0.90669  0.70541  0.22996  1.0000
  C   C284      1.0  0.88047  0.70028  0.22112  1.0000
  C   C285      1.0  0.91799  0.71617  0.24883  1.0000
  C   C286      1.0  0.94553  0.71910  0.25375  1.0000
  C   C287      1.0  0.96075  0.71126  0.23982  1.0000
  C   C288      1.0  0.94853  0.70048  0.22089  1.0000
  N   N72       1.0  0.86102  0.70554  0.23061  1.0000
  H   H65       1.0  0.83036  0.72122  0.25813  1.0000
  O   O65       1.0  0.78860  0.72792  0.26969  1.0000
  O   O66       1.0  0.74634  0.71355  0.24419  1.0000
  H   H66       1.0  0.75299  0.69496  0.21140  1.0000
  H   H67       1.0  0.73709  0.66318  0.15541  1.0000
  O   O67       1.0  0.71182  0.64449  0.12264  1.0000
  O   O68       1.0  0.73966  0.63001  0.09718  1.0000
  H   H68       1.0  0.78800  0.63647  0.10882  1.0000
  H   H69       1.0  0.94257  0.66317  0.15544  1.0000
  O   O69       1.0  0.94912  0.64435  0.12271  1.0000
  O   O70       1.0  0.90673  0.62971  0.09728  1.0000
  H   H70       1.0  0.86490  0.63627  0.10887  1.0000
  H   H71       1.0  0.90746  0.72136  0.25808  1.0000
  O   O71       1.0  0.95599  0.72818  0.26960  1.0000
  O   O72       1.0  0.98384  0.71376  0.24410  1.0000
  H   H72       1.0  0.95854  0.69511  0.21133  1.0000
  Ni  Ni9       1.0  0.84768  0.67887  0.18347  1.0000
  C   C289      1.0  0.50030  0.98410  0.01631  1.0000
  C   C290      1.0  0.48622  0.99816  0.01653  1.0000
  C   C291      1.0  0.50028  0.02628  0.01696  1.0000
  C   C292      1.0  0.52841  0.04036  0.01717  1.0000
  C   C293      1.0  0.54249  0.02630  0.01694  1.0000
  C   C294      1.0  0.52844  0.99817  0.01652  1.0000
  H   H73       1.0  0.48976  0.96301  0.01599  1.0000
  O   O73       1.0  0.46091  0.98549  0.01634  1.0000
  O   O74       1.0  0.48761  0.03893  0.01716  1.0000
  H   H74       1.0  0.53895  0.06145  0.01749  1.0000
  O   O75       1.0  0.56781  0.03897  0.01713  1.0000
  O   O76       1.0  0.54111  0.98552  0.01632  1.0000
  C   C295      1.0  0.98625  0.49822  0.01719  1.0000
  C   C296      1.0  0.00010  0.52635  0.01699  1.0000
  C   C297      1.0  0.02844  0.54041  0.01656  1.0000
  C   C298      1.0  0.04250  0.52633  0.01634  1.0000
  C   C299      1.0  0.02843  0.49820  0.01655  1.0000
  C   C300      1.0  0.00010  0.48414  0.01698  1.0000
  H   H75       1.0  0.96515  0.48768  0.01751  1.0000
  O   O77       1.0  0.98766  0.53902  0.01718  1.0000
  O   O78       1.0  0.04111  0.56573  0.01637  1.0000
  H   H76       1.0  0.06359  0.53687  0.01602  1.0000
  O   O79       1.0  0.04108  0.48553  0.01636  1.0000
  O   O80       1.0  0.98764  0.45883  0.01716  1.0000
  C   C301      1.0  0.50037  0.52637  0.01633  1.0000
  C   C302      1.0  0.48630  0.49823  0.01655  1.0000
  C   C303      1.0  0.50036  0.48417  0.01698  1.0000
  C   C304      1.0  0.52849  0.49823  0.01719  1.0000
  C   C305      1.0  0.54256  0.52637  0.01698  1.0000
  C   C306      1.0  0.52850  0.54043  0.01655  1.0000
  H   H77       1.0  0.48982  0.53691  0.01601  1.0000
  O   O81       1.0  0.46098  0.48557  0.01636  1.0000
  O   O82       1.0  0.48770  0.45885  0.01718  1.0000
  H   H78       1.0  0.53904  0.48769  0.01752  1.0000
  O   O83       1.0  0.56788  0.53903  0.01717  1.0000
  O   O84       1.0  0.54116  0.56575  0.01635  1.0000
  C   C307      1.0  0.19509  0.37369  0.35050  1.0000
  C   C308      1.0  0.16696  0.35963  0.35029  1.0000
  C   C309      1.0  0.15290  0.33150  0.34986  1.0000
  C   C310      1.0  0.16697  0.31744  0.34965  1.0000
  C   C311      1.0  0.19510  0.33150  0.34986  1.0000
  C   C312      1.0  0.20916  0.35963  0.35029  1.0000
  H   H79       1.0  0.20563  0.39479  0.35082  1.0000
  O   O85       1.0  0.15429  0.37228  0.35048  1.0000
  O   O86       1.0  0.12758  0.31884  0.34967  1.0000
  H   H80       1.0  0.15642  0.29634  0.34933  1.0000
  O   O87       1.0  0.20777  0.31885  0.34967  1.0000
  O   O88       1.0  0.23448  0.37229  0.35048  1.0000
  C   C313      1.0  0.65291  0.83155  0.35054  1.0000
  C   C314      1.0  0.66697  0.81747  0.35033  1.0000
  C   C315      1.0  0.69510  0.83153  0.34990  1.0000
  C   C316      1.0  0.70917  0.85966  0.34968  1.0000
  C   C317      1.0  0.69511  0.87374  0.34989  1.0000
  C   C318      1.0  0.66698  0.85968  0.35032  1.0000
  H   H81       1.0  0.63182  0.82100  0.35086  1.0000
  O   O89       1.0  0.65431  0.79216  0.35052  1.0000
  O   O90       1.0  0.70775  0.81887  0.34970  1.0000
  H   H82       1.0  0.73026  0.87021  0.34936  1.0000
  O   O91       1.0  0.70777  0.89906  0.34970  1.0000
  O   O92       1.0  0.65432  0.87235  0.35052  1.0000
  C   C319      1.0  0.19518  0.83158  0.35051  1.0000
  C   C320      1.0  0.20923  0.85971  0.35030  1.0000
  C   C321      1.0  0.19516  0.87377  0.34988  1.0000
  C   C322      1.0  0.16703  0.85969  0.34965  1.0000
  C   C323      1.0  0.15297  0.83156  0.34986  1.0000
  C   C324      1.0  0.16705  0.81750  0.35029  1.0000
  H   H83       1.0  0.20573  0.82104  0.35083  1.0000
  O   O93       1.0  0.23455  0.87239  0.35050  1.0000
  O   O94       1.0  0.20781  0.89909  0.34969  1.0000
  H   H84       1.0  0.15647  0.87023  0.34933  1.0000
  O   O95       1.0  0.12765  0.81889  0.34966  1.0000
  O   O96       1.0  0.15439  0.79218  0.35047  1.0000
  C   C325      1.0  0.83366  0.65081  0.68297  1.0000
  C   C326      1.0  0.86180  0.66487  0.68318  1.0000
  C   C327      1.0  0.87586  0.69300  0.68361  1.0000
  C   C328      1.0  0.86178  0.70706  0.68382  1.0000
  C   C329      1.0  0.83365  0.69300  0.68361  1.0000
  C   C330      1.0  0.81959  0.66487  0.68318  1.0000
  H   H85       1.0  0.82312  0.62971  0.68265  1.0000
  O   O97       1.0  0.87446  0.65222  0.68299  1.0000
  O   O98       1.0  0.90117  0.70566  0.68380  1.0000
  H   H86       1.0  0.87233  0.72816  0.68414  1.0000
  O   O99       1.0  0.82098  0.70565  0.68380  1.0000
  O   O100      1.0  0.79427  0.65221  0.68299  1.0000
  C   C331      1.0  0.31959  0.16489  0.68387  1.0000
  C   C332      1.0  0.33367  0.19303  0.68367  1.0000
  C   C333      1.0  0.36179  0.20708  0.68324  1.0000
  C   C334      1.0  0.37584  0.19299  0.68302  1.0000
  C   C335      1.0  0.36177  0.16486  0.68323  1.0000
  C   C336      1.0  0.33364  0.15081  0.68365  1.0000
  H   H87       1.0  0.29849  0.15436  0.68419  1.0000
  O   O101      1.0  0.32102  0.20570  0.68386  1.0000
  O   O102      1.0  0.37446  0.23239  0.68305  1.0000
  H   H88       1.0  0.39694  0.20353  0.68270  1.0000
  O   O103      1.0  0.37441  0.15218  0.68303  1.0000
  O   O104      1.0  0.32097  0.12549  0.68384  1.0000
  C   C337      1.0  0.83373  0.19306  0.68285  1.0000
  C   C338      1.0  0.86186  0.20712  0.68313  1.0000
  C   C339      1.0  0.87591  0.19304  0.68372  1.0000
  C   C340      1.0  0.86183  0.16491  0.68402  1.0000
  C   C341      1.0  0.83370  0.15085  0.68373  1.0000
  C   C342      1.0  0.81965  0.16493  0.68315  1.0000
  H   H89       1.0  0.82319  0.20361  0.68241  1.0000
  O   O105      1.0  0.87453  0.23243  0.68287  1.0000
  O   O106      1.0  0.90123  0.20569  0.68397  1.0000
  H   H90       1.0  0.87236  0.15436  0.68445  1.0000
  O   O107      1.0  0.82102  0.12554  0.68400  1.0000
  O   O108      1.0  0.79433  0.15228  0.68289  1.0000
  C   C343      1.0  0.39395  0.97912  0.99780  1.0000
  C   C344      1.0  0.41481  0.99477  0.98296  1.0000
  C   C345      1.0  0.40620  0.99112  0.96295  1.0000
  C   C346      1.0  0.37671  0.97182  0.95773  1.0000
  C   C347      1.0  0.35577  0.95611  0.97260  1.0000
  C   C348      1.0  0.36446  0.95981  0.99261  1.0000
  O   O109      1.0  0.40240  0.98270  0.01743  1.0000
  O   O110      1.0  0.44373  0.01371  0.98805  1.0000
  H   H91       1.0  0.42167  0.00273  0.95199  1.0000
  O   O111      1.0  0.36835  0.96830  0.93806  1.0000
  O   O112      1.0  0.32675  0.93710  0.96758  1.0000
  H   H92       1.0  0.34901  0.94823  0.00359  1.0000
  Cu  Cu1       1.0  0.32520  0.93924  0.93801  1.0000
  C   C349      1.0  0.03187  0.43018  0.98299  1.0000
  C   C350      1.0  0.04750  0.42496  0.99784  1.0000
  C   C351      1.0  0.06684  0.41479  0.99271  1.0000
  C   C352      1.0  0.07059  0.40981  0.97272  1.0000
  C   C353      1.0  0.05492  0.41503  0.95781  1.0000
  C   C354      1.0  0.03559  0.42521  0.96299  1.0000
  O   O113      1.0  0.01289  0.44015  0.98802  1.0000
  O   O114      1.0  0.04385  0.42984  0.01745  1.0000
  H   H93       1.0  0.07839  0.41095  0.00373  1.0000
  O   O115      1.0  0.08961  0.39982  0.96775  1.0000
  O   O116      1.0  0.05850  0.41018  0.93813  1.0000
  H   H94       1.0  0.02402  0.42906  0.95200  1.0000
  Cu  Cu2       1.0  0.08761  0.39611  0.93820  1.0000
  C   C355      1.0  0.60171  0.63267  0.99780  1.0000
  C   C356      1.0  0.59650  0.61182  0.98296  1.0000
  C   C357      1.0  0.60146  0.62043  0.96295  1.0000
  C   C358      1.0  0.61163  0.64992  0.95773  1.0000
  C   C359      1.0  0.61687  0.67086  0.97260  1.0000
  C   C360      1.0  0.61189  0.66217  0.99261  1.0000
  O   O117      1.0  0.59685  0.62423  0.01743  1.0000
  O   O118      1.0  0.58653  0.58290  0.98805  1.0000
  H   H95       1.0  0.59759  0.60495  0.95199  1.0000
  O   O119      1.0  0.61647  0.65828  0.93806  1.0000
  O   O120      1.0  0.62686  0.69987  0.96759  1.0000
  H   H96       1.0  0.61574  0.67761  0.00359  1.0000
  Cu  Cu3       1.0  0.63054  0.70142  0.93801  1.0000
  C   C361      1.0  0.98127  0.39187  0.03571  1.0000
  C   C362      1.0  0.99691  0.41272  0.05055  1.0000
  C   C363      1.0  0.99326  0.40411  0.07056  1.0000
  C   C364      1.0  0.97395  0.37462  0.07578  1.0000
  C   C365      1.0  0.95825  0.35368  0.06090  1.0000
  C   C366      1.0  0.96195  0.36237  0.04090  1.0000
  O   O121      1.0  0.98485  0.40032  0.01608  1.0000
  O   O122      1.0  0.01585  0.44164  0.04546  1.0000
  H   H97       1.0  0.00486  0.41958  0.08152  1.0000
  O   O123      1.0  0.97043  0.36625  0.09545  1.0000
  O   O124      1.0  0.93924  0.32467  0.06592  1.0000
  H   H98       1.0  0.95037  0.34693  0.02991  1.0000
  Cu  Cu4       1.0  0.94137  0.32311  0.09549  1.0000
  C   C367      1.0  0.61402  0.59440  0.05052  1.0000
  C   C368      1.0  0.63486  0.59961  0.03566  1.0000
  C   C369      1.0  0.66437  0.60979  0.04079  1.0000
  C   C370      1.0  0.67311  0.61479  0.06078  1.0000
  C   C371      1.0  0.65223  0.60958  0.07569  1.0000
  C   C372      1.0  0.62272  0.59940  0.07051  1.0000
  O   O125      1.0  0.58507  0.58441  0.04549  1.0000
  O   O126      1.0  0.62632  0.59471  0.01606  1.0000
  H   H99       1.0  0.67975  0.61362  0.02977  1.0000
  O   O127      1.0  0.70213  0.62479  0.06575  1.0000
  O   O128      1.0  0.66066  0.61445  0.09537  1.0000
  H   H100      1.0  0.60730  0.59555  0.08151  1.0000
  Cu  Cu5       1.0  0.70385  0.62853  0.09529  1.0000
  C   C373      1.0  0.43224  0.02971  0.05052  1.0000
  C   C374      1.0  0.42703  0.04534  0.03567  1.0000
  C   C375      1.0  0.41686  0.06468  0.04080  1.0000
  C   C376      1.0  0.41187  0.06843  0.06079  1.0000
  C   C377      1.0  0.41708  0.05276  0.07570  1.0000
  C   C378      1.0  0.42726  0.03343  0.07052  1.0000
  O   O129      1.0  0.44222  0.01074  0.04549  1.0000
  O   O130      1.0  0.43191  0.04170  0.01606  1.0000
  H   H101      1.0  0.41302  0.07623  0.02978  1.0000
  O   O131      1.0  0.40187  0.08744  0.06576  1.0000
  O   O132      1.0  0.41223  0.05633  0.09537  1.0000
  H   H102      1.0  0.43112  0.02186  0.08151  1.0000
  Cu  Cu6       1.0  0.39815  0.08544  0.09530  1.0000
  C   C379      1.0  0.61394  0.02976  0.05049  1.0000
  C   C380      1.0  0.63480  0.04541  0.03565  1.0000
  C   C381      1.0  0.66429  0.06476  0.04079  1.0000
  C   C382      1.0  0.67300  0.06852  0.06079  1.0000
  C   C383      1.0  0.65211  0.05284  0.07569  1.0000
  C   C384      1.0  0.62261  0.03349  0.07049  1.0000
  O   O133      1.0  0.58500  0.01077  0.04544  1.0000
  O   O134      1.0  0.62629  0.04175  0.01603  1.0000
  H   H103      1.0  0.67969  0.07632  0.02978  1.0000
  O   O135      1.0  0.70200  0.08756  0.06578  1.0000
  O   O136      1.0  0.66051  0.05642  0.09537  1.0000
  H   H104      1.0  0.60718  0.02191  0.08148  1.0000
  Cu  Cu7       1.0  0.70368  0.08556  0.09532  1.0000
  C   C385      1.0  0.98129  0.59957  0.03575  1.0000
  C   C386      1.0  0.99694  0.59435  0.05058  1.0000
  C   C387      1.0  0.99327  0.59927  0.07059  1.0000
  C   C388      1.0  0.97395  0.60943  0.07582  1.0000
  C   C389      1.0  0.95823  0.61467  0.06096  1.0000
  C   C390      1.0  0.96195  0.60972  0.04095  1.0000
  O   O137      1.0  0.98488  0.59474  0.01611  1.0000
  O   O138      1.0  0.01590  0.58439  0.04548  1.0000
  H   H105      1.0  0.00488  0.59539  0.08155  1.0000
  O   O139      1.0  0.97041  0.61423  0.09550  1.0000
  O   O140      1.0  0.93921  0.62465  0.06599  1.0000
  H   H106      1.0  0.95037  0.61359  0.02997  1.0000
  Cu  Cu8       1.0  0.94132  0.62829  0.09556  1.0000
  C   C391      1.0  0.42717  0.39194  0.03573  1.0000
  C   C392      1.0  0.43238  0.41280  0.05056  1.0000
  C   C393      1.0  0.42746  0.40420  0.07057  1.0000
  C   C394      1.0  0.41731  0.37472  0.07580  1.0000
  C   C395      1.0  0.41207  0.35377  0.06093  1.0000
  C   C396      1.0  0.41702  0.36245  0.04092  1.0000
  O   O141      1.0  0.43200  0.40037  0.01609  1.0000
  O   O142      1.0  0.44234  0.44171  0.04547  1.0000
  H   H107      1.0  0.43133  0.41968  0.08153  1.0000
  O   O143      1.0  0.41250  0.36637  0.09548  1.0000
  O   O144      1.0  0.40209  0.32476  0.06595  1.0000
  H   H108      1.0  0.41316  0.34700  0.02994  1.0000
  Cu  Cu9       1.0  0.39845  0.32323  0.09553  1.0000
  C   C397      1.0  0.03189  0.61186  0.98302  1.0000
  C   C398      1.0  0.04754  0.63271  0.99785  1.0000
  C   C399      1.0  0.06690  0.66220  0.99271  1.0000
  C   C400      1.0  0.07065  0.67092  0.97271  1.0000
  C   C401      1.0  0.05497  0.65002  0.95781  1.0000
  C   C402      1.0  0.03562  0.62053  0.96301  1.0000
  O   O145      1.0  0.01290  0.58292  0.98806  1.0000
  O   O146      1.0  0.04388  0.62421  0.01747  1.0000
  H   H109      1.0  0.07846  0.67760  0.00372  1.0000
  O   O147      1.0  0.08969  0.69992  0.96772  1.0000
  O   O148      1.0  0.05855  0.65842  0.93813  1.0000
  H   H110      1.0  0.02404  0.60509  0.95202  1.0000
  Cu  Cu10      1.0  0.08769  0.70159  0.93818  1.0000
  C   C403      1.0  0.41487  0.43026  0.98301  1.0000
  C   C404      1.0  0.39402  0.42505  0.99785  1.0000
  C   C405      1.0  0.36452  0.41492  0.99271  1.0000
  C   C406      1.0  0.35580  0.40996  0.97271  1.0000
  C   C407      1.0  0.37670  0.41518  0.95781  1.0000
  C   C408      1.0  0.40619  0.42532  0.96300  1.0000
  O   O149      1.0  0.44381  0.44020  0.98805  1.0000
  O   O150      1.0  0.40253  0.42989  0.01746  1.0000
  H   H111      1.0  0.34913  0.41107  0.00372  1.0000
  O   O151      1.0  0.32680  0.40001  0.96773  1.0000
  O   O152      1.0  0.36829  0.41036  0.93813  1.0000
  H   H112      1.0  0.42162  0.42918  0.95201  1.0000
  Cu  Cu11      1.0  0.32512  0.39633  0.93818  1.0000
  C   C409      1.0  0.60165  0.97915  0.99775  1.0000
  C   C410      1.0  0.59642  0.99480  0.98292  1.0000
  C   C411      1.0  0.60134  0.99113  0.96291  1.0000
  C   C412      1.0  0.61149  0.97180  0.95768  1.0000
  C   C413      1.0  0.61674  0.95609  0.97254  1.0000
  C   C414      1.0  0.61180  0.95981  0.99255  1.0000
  O   O153      1.0  0.59682  0.98275  0.01739  1.0000
  O   O154      1.0  0.58647  0.01375  0.98802  1.0000
  H   H113      1.0  0.59746  0.00273  0.95195  1.0000
  O   O155      1.0  0.61630  0.96826  0.93800  1.0000
  O   O156      1.0  0.62672  0.93706  0.96751  1.0000
  H   H114      1.0  0.61567  0.94822  0.00353  1.0000
  Cu  Cu12      1.0  0.63035  0.93917  0.93794  1.0000
  C   C415      1.0  0.06062  0.31248  0.33112  1.0000
  C   C416      1.0  0.08148  0.32812  0.31628  1.0000
  C   C417      1.0  0.07287  0.32447  0.29627  1.0000
  C   C418      1.0  0.04338  0.30516  0.29105  1.0000
  C   C419      1.0  0.02243  0.28946  0.30592  1.0000
  C   C420      1.0  0.03113  0.29317  0.32593  1.0000
  O   O157      1.0  0.06907  0.31606  0.35075  1.0000
  O   O158      1.0  0.11040  0.34706  0.32136  1.0000
  H   H115      1.0  0.08834  0.33607  0.28531  1.0000
  O   O159      1.0  0.03501  0.30164  0.27137  1.0000
  O   O160      1.0  0.99342  0.27045  0.30091  1.0000
  H   H116      1.0  0.01568  0.28158  0.33691  1.0000
  Cu  Cu13      1.0  0.99187  0.27258  0.27133  1.0000
  C   C421      1.0  0.69854  0.76350  0.31635  1.0000
  C   C422      1.0  0.71417  0.75829  0.33120  1.0000
  C   C423      1.0  0.73351  0.74812  0.32607  1.0000
  C   C424      1.0  0.73726  0.74314  0.30608  1.0000
  C   C425      1.0  0.72159  0.74835  0.29117  1.0000
  C   C426      1.0  0.70226  0.75853  0.29635  1.0000
  O   O161      1.0  0.67956  0.77348  0.32138  1.0000
  O   O162      1.0  0.71052  0.76317  0.35081  1.0000
  H   H117      1.0  0.74506  0.74428  0.33709  1.0000
  O   O163      1.0  0.75629  0.73315  0.30111  1.0000
  O   O164      1.0  0.72517  0.74351  0.27149  1.0000
  H   H118      1.0  0.69069  0.76238  0.28535  1.0000
  Cu  Cu14      1.0  0.75428  0.72943  0.27156  1.0000
  C   C427      1.0  0.26837  0.96603  0.33114  1.0000
  C   C428      1.0  0.26317  0.94517  0.31630  1.0000
  C   C429      1.0  0.26812  0.95377  0.29629  1.0000
  C   C430      1.0  0.27830  0.98325  0.29107  1.0000
  C   C431      1.0  0.28353  0.00421  0.30593  1.0000
  C   C432      1.0  0.27855  0.99552  0.32594  1.0000
  O   O165      1.0  0.26351  0.95759  0.35077  1.0000
  O   O166      1.0  0.25319  0.91625  0.32140  1.0000
  H   H119      1.0  0.26425  0.93829  0.28534  1.0000
  O   O167      1.0  0.28314  0.99161  0.27139  1.0000
  O   O168      1.0  0.29353  0.03321  0.30091  1.0000
  H   H120      1.0  0.28240  0.01097  0.33692  1.0000
  Cu  Cu15      1.0  0.29721  0.03476  0.27134  1.0000
  C   C433      1.0  0.64795  0.72520  0.36906  1.0000
  C   C434      1.0  0.66359  0.74605  0.38390  1.0000
  C   C435      1.0  0.65994  0.73743  0.40391  1.0000
  C   C436      1.0  0.64063  0.70794  0.40912  1.0000
  C   C437      1.0  0.62493  0.68700  0.39425  1.0000
  C   C438      1.0  0.62864  0.69570  0.37424  1.0000
  O   O169      1.0  0.65153  0.73365  0.34943  1.0000
  O   O170      1.0  0.68253  0.77497  0.37882  1.0000
  H   H121      1.0  0.67154  0.75290  0.41487  1.0000
  O   O171      1.0  0.63711  0.69957  0.42880  1.0000
  O   O172      1.0  0.60592  0.65799  0.39926  1.0000
  H   H122      1.0  0.61705  0.68026  0.36326  1.0000
  Cu  Cu16      1.0  0.60805  0.65642  0.42883  1.0000
  C   C439      1.0  0.28068  0.92776  0.38386  1.0000
  C   C440      1.0  0.30152  0.93297  0.36901  1.0000
  C   C441      1.0  0.33103  0.94315  0.37414  1.0000
  C   C442      1.0  0.33978  0.94816  0.39413  1.0000
  C   C443      1.0  0.31889  0.94294  0.40904  1.0000
  C   C444      1.0  0.28939  0.93275  0.40386  1.0000
  O   O173      1.0  0.25173  0.91777  0.37883  1.0000
  O   O174      1.0  0.29299  0.92808  0.34941  1.0000
  H   H123      1.0  0.34642  0.94699  0.36313  1.0000
  O   O175      1.0  0.36879  0.95816  0.39910  1.0000
  O   O176      1.0  0.32732  0.94781  0.42872  1.0000
  H   H124      1.0  0.27396  0.92890  0.41486  1.0000
  Cu  Cu17      1.0  0.37051  0.96190  0.42865  1.0000
  C   C445      1.0  0.09892  0.36307  0.38383  1.0000
  C   C446      1.0  0.09372  0.37871  0.36899  1.0000
  C   C447      1.0  0.08355  0.39805  0.37412  1.0000
  C   C448      1.0  0.07856  0.40180  0.39411  1.0000
  C   C449      1.0  0.08378  0.38612  0.40902  1.0000
  C   C450      1.0  0.09395  0.36679  0.40383  1.0000
  O   O177      1.0  0.10890  0.34410  0.37880  1.0000
  O   O178      1.0  0.09859  0.37506  0.34938  1.0000
  H   H125      1.0  0.07971  0.40960  0.36310  1.0000
  O   O179      1.0  0.06858  0.42082  0.39908  1.0000
  O   O180      1.0  0.07893  0.38970  0.42869  1.0000
  H   H126      1.0  0.09781  0.35522  0.41483  1.0000
  Cu  Cu18      1.0  0.06486  0.41881  0.42862  1.0000
  C   C451      1.0  0.30142  0.37868  0.36904  1.0000
  C   C452      1.0  0.28055  0.36303  0.38388  1.0000
  C   C453      1.0  0.28914  0.36670  0.40389  1.0000
  C   C454      1.0  0.31861  0.38603  0.40912  1.0000
  C   C455      1.0  0.33957  0.40174  0.39426  1.0000
  C   C456      1.0  0.33090  0.39802  0.37425  1.0000
  O   O181      1.0  0.29299  0.37508  0.34941  1.0000
  O   O182      1.0  0.25164  0.34406  0.37877  1.0000
  H   H127      1.0  0.27365  0.35509  0.41484  1.0000
  O   O183      1.0  0.32695  0.38957  0.42880  1.0000
  O   O184      1.0  0.36857  0.42078  0.39929  1.0000
  H   H128      1.0  0.34635  0.40961  0.36327  1.0000
  Cu  Cu19      1.0  0.37009  0.41866  0.42886  1.0000
  C   C457      1.0  0.64794  0.93290  0.36907  1.0000
  C   C458      1.0  0.66360  0.92768  0.38390  1.0000
  C   C459      1.0  0.65993  0.93261  0.40392  1.0000
  C   C460      1.0  0.64060  0.94276  0.40915  1.0000
  C   C461      1.0  0.62489  0.94801  0.39428  1.0000
  C   C462      1.0  0.62861  0.94306  0.37427  1.0000
  O   O185      1.0  0.65154  0.92807  0.34944  1.0000
  O   O186      1.0  0.68255  0.91773  0.37881  1.0000
  H   H129      1.0  0.67154  0.92873  0.41487  1.0000
  O   O187      1.0  0.63707  0.94757  0.42882  1.0000
  O   O188      1.0  0.60586  0.95798  0.39930  1.0000
  H   H130      1.0  0.61702  0.94692  0.36329  1.0000
  Cu  Cu20      1.0  0.60797  0.96163  0.42888  1.0000
  C   C463      1.0  0.09386  0.72525  0.36903  1.0000
  C   C464      1.0  0.09907  0.74612  0.38386  1.0000
  C   C465      1.0  0.09415  0.73753  0.40387  1.0000
  C   C466      1.0  0.08400  0.70805  0.40910  1.0000
  C   C467      1.0  0.07877  0.68709  0.39424  1.0000
  C   C468      1.0  0.08371  0.69576  0.37423  1.0000
  O   O189      1.0  0.09868  0.73368  0.34939  1.0000
  O   O190      1.0  0.10902  0.77503  0.37876  1.0000
  H   H131      1.0  0.09803  0.75301  0.41483  1.0000
  O   O191      1.0  0.07920  0.69971  0.42878  1.0000
  O   O192      1.0  0.06880  0.65809  0.39927  1.0000
  H   H132      1.0  0.07985  0.68031  0.36325  1.0000
  Cu  Cu21      1.0  0.06516  0.65657  0.42884  1.0000
  C   C469      1.0  0.69855  0.94519  0.31634  1.0000
  C   C470      1.0  0.71420  0.96604  0.33118  1.0000
  C   C471      1.0  0.73355  0.99554  0.32603  1.0000
  C   C472      1.0  0.73731  0.00425  0.30604  1.0000
  C   C473      1.0  0.72163  0.98335  0.29114  1.0000
  C   C474      1.0  0.70228  0.95386  0.29634  1.0000
  O   O193      1.0  0.67956  0.91625  0.32139  1.0000
  O   O194      1.0  0.71054  0.95754  0.35079  1.0000
  H   H133      1.0  0.74511  0.01094  0.33704  1.0000
  O   O195      1.0  0.75635  0.03325  0.30105  1.0000
  O   O196      1.0  0.72521  0.99175  0.27146  1.0000
  H   H134      1.0  0.69070  0.93843  0.28535  1.0000
  Cu  Cu22      1.0  0.75435  0.03493  0.27150  1.0000
  C   C475      1.0  0.08154  0.76357  0.31630  1.0000
  C   C476      1.0  0.06069  0.75836  0.33114  1.0000
  C   C477      1.0  0.03120  0.74822  0.32600  1.0000
  C   C478      1.0  0.02247  0.74327  0.30601  1.0000
  C   C479      1.0  0.04337  0.74849  0.29110  1.0000
  C   C480      1.0  0.07286  0.75863  0.29630  1.0000
  O   O197      1.0  0.11048  0.77352  0.32134  1.0000
  O   O198      1.0  0.06920  0.76320  0.35075  1.0000
  H   H135      1.0  0.01580  0.74437  0.33701  1.0000
  O   O199      1.0  0.99347  0.73331  0.30102  1.0000
  O   O200      1.0  0.03496  0.74367  0.27142  1.0000
  H   H136      1.0  0.08830  0.76249  0.28530  1.0000
  Cu  Cu23      1.0  0.99178  0.72963  0.27148  1.0000
  C   C481      1.0  0.26311  0.32807  0.31632  1.0000
  C   C482      1.0  0.26832  0.31242  0.33116  1.0000
  C   C483      1.0  0.27847  0.29307  0.32602  1.0000
  C   C484      1.0  0.28343  0.28931  0.30602  1.0000
  C   C485      1.0  0.27821  0.30499  0.29112  1.0000
  C   C486      1.0  0.26805  0.32434  0.29631  1.0000
  O   O201      1.0  0.25315  0.34705  0.32136  1.0000
  O   O202      1.0  0.26347  0.31608  0.35077  1.0000
  H   H137      1.0  0.28231  0.28151  0.33703  1.0000
  O   O203      1.0  0.29339  0.27028  0.30104  1.0000
  O   O204      1.0  0.28303  0.30141  0.27144  1.0000
  H   H138      1.0  0.26420  0.33592  0.28532  1.0000
  Cu  Cu24      1.0  0.29708  0.27228  0.27149  1.0000
  C   C487      1.0  0.72733  0.64583  0.66444  1.0000
  C   C488      1.0  0.74818  0.66148  0.64960  1.0000
  C   C489      1.0  0.73956  0.65782  0.62959  1.0000
  C   C490      1.0  0.71007  0.63851  0.62438  1.0000
  C   C491      1.0  0.68913  0.62280  0.63925  1.0000
  C   C492      1.0  0.69783  0.62651  0.65926  1.0000
  O   O205      1.0  0.73578  0.64942  0.68407  1.0000
  O   O206      1.0  0.77710  0.68042  0.65469  1.0000
  H   H139      1.0  0.75503  0.66942  0.61863  1.0000
  O   O207      1.0  0.70170  0.63498  0.60470  1.0000
  O   O208      1.0  0.66012  0.60379  0.63424  1.0000
  H   H140      1.0  0.68239  0.61493  0.67024  1.0000
  Cu  Cu25      1.0  0.65856  0.60591  0.60466  1.0000
  C   C493      1.0  0.36393  0.09516  0.64981  1.0000
  C   C494      1.0  0.38209  0.09331  0.66437  1.0000
  C   C495      1.0  0.40270  0.08482  0.65909  1.0000
  C   C496      1.0  0.40519  0.07817  0.63925  1.0000
  C   C497      1.0  0.38698  0.08002  0.62463  1.0000
  C   C498      1.0  0.36638  0.08852  0.62996  1.0000
  O   O209      1.0  0.34371  0.10349  0.65499  1.0000
  O   O210      1.0  0.37968  0.09982  0.68384  1.0000
  H   H141      1.0  0.41612  0.08346  0.66990  1.0000
  O   O211      1.0  0.42546  0.06984  0.63413  1.0000
  O   O212      1.0  0.38930  0.07351  0.60509  1.0000
  H   H142      1.0  0.35294  0.08989  0.61917  1.0000
  Cu  Cu26      1.0  0.42094  0.06279  0.60487  1.0000
  C   C499      1.0  0.93510  0.29937  0.66445  1.0000
  C   C500      1.0  0.92989  0.27851  0.64962  1.0000
  C   C501      1.0  0.93484  0.28711  0.62961  1.0000
  C   C502      1.0  0.94502  0.31660  0.62438  1.0000
  C   C503      1.0  0.95026  0.33755  0.63925  1.0000
  C   C504      1.0  0.94528  0.32886  0.65926  1.0000
  O   O213      1.0  0.93024  0.29092  0.68408  1.0000
  O   O214      1.0  0.91991  0.24959  0.65471  1.0000
  H   H143      1.0  0.93097  0.27164  0.61865  1.0000
  O   O215      1.0  0.94986  0.32496  0.60471  1.0000
  O   O216      1.0  0.96026  0.36656  0.63423  1.0000
  H   H144      1.0  0.94914  0.34431  0.67024  1.0000
  Cu  Cu27      1.0  0.96394  0.36811  0.60466  1.0000
  C   C505      1.0  0.31460  0.05853  0.70239  1.0000
  C   C506      1.0  0.33024  0.07939  0.71723  1.0000
  C   C507      1.0  0.32660  0.07078  0.73723  1.0000
  C   C508      1.0  0.30729  0.04129  0.74245  1.0000
  C   C509      1.0  0.29158  0.02034  0.72758  1.0000
  C   C510      1.0  0.29528  0.02904  0.70758  1.0000
  O   O217      1.0  0.31818  0.06698  0.68276  1.0000
  O   O218      1.0  0.34918  0.10831  0.71214  1.0000
  H   H145      1.0  0.33820  0.08625  0.74819  1.0000
  O   O219      1.0  0.30377  0.03292  0.76213  1.0000
  O   O220      1.0  0.27257  0.99133  0.73260  1.0000
  H   H146      1.0  0.28370  0.01359  0.69659  1.0000
  Cu  Cu28      1.0  0.27471  0.98978  0.76217  1.0000
  C   C511      1.0  0.94740  0.26110  0.71718  1.0000
  C   C512      1.0  0.96824  0.26630  0.70233  1.0000
  C   C513      1.0  0.99775  0.27648  0.70746  1.0000
  C   C514      1.0  0.00649  0.28149  0.72746  1.0000
  C   C515      1.0  0.98560  0.27628  0.74236  1.0000
  C   C516      1.0  0.95610  0.26609  0.73718  1.0000
  O   O221      1.0  0.91845  0.25111  0.71214  1.0000
  O   O222      1.0  0.95972  0.26140  0.68272  1.0000
  H   H147      1.0  0.01314  0.28032  0.69645  1.0000
  O   O223      1.0  0.03550  0.29149  0.73243  1.0000
  O   O224      1.0  0.99403  0.28115  0.76204  1.0000
  H   H148      1.0  0.94067  0.26225  0.74817  1.0000
  Cu  Cu29      1.0  0.03721  0.29524  0.76197  1.0000
  C   C517      1.0  0.76562  0.69642  0.71715  1.0000
  C   C518      1.0  0.76041  0.71206  0.70230  1.0000
  C   C519      1.0  0.75023  0.73139  0.70743  1.0000
  C   C520      1.0  0.74524  0.73514  0.72742  1.0000
  C   C521      1.0  0.75046  0.71947  0.74233  1.0000
  C   C522      1.0  0.76064  0.70014  0.73715  1.0000
  O   O225      1.0  0.77560  0.67746  0.71212  1.0000
  O   O226      1.0  0.76529  0.70841  0.68269  1.0000
  H   H149      1.0  0.74639  0.74294  0.69641  1.0000
  O   O227      1.0  0.73524  0.75415  0.73239  1.0000
  O   O228      1.0  0.74560  0.72304  0.76201  1.0000
  H   H150      1.0  0.76449  0.68857  0.74815  1.0000
  Cu  Cu30      1.0  0.73152  0.75214  0.76194  1.0000
  C   C523      1.0  0.96810  0.71205  0.70237  1.0000
  C   C524      1.0  0.94723  0.69639  0.71720  1.0000
  C   C525      1.0  0.95581  0.70006  0.73721  1.0000
  C   C526      1.0  0.98528  0.71939  0.74245  1.0000
  C   C527      1.0  0.00624  0.73511  0.72759  1.0000
  C   C528      1.0  0.99758  0.73139  0.70757  1.0000
  O   O229      1.0  0.95968  0.70845  0.68273  1.0000
  O   O230      1.0  0.91832  0.67743  0.71209  1.0000
  H   H151      1.0  0.94032  0.68845  0.74816  1.0000
  O   O231      1.0  0.99362  0.72293  0.76213  1.0000
  O   O232      1.0  0.03524  0.75414  0.73262  1.0000
  H   H152      1.0  0.01304  0.74298  0.69660  1.0000
  Cu  Cu31      1.0  0.03676  0.75203  0.76219  1.0000
  C   C529      1.0  0.31465  0.26624  0.70242  1.0000
  C   C530      1.0  0.33030  0.26102  0.71725  1.0000
  C   C531      1.0  0.32663  0.26595  0.73727  1.0000
  C   C532      1.0  0.30730  0.27610  0.74249  1.0000
  C   C533      1.0  0.29159  0.28135  0.72762  1.0000
  C   C534      1.0  0.29531  0.27640  0.70762  1.0000
  O   O233      1.0  0.31825  0.26141  0.68278  1.0000
  O   O234      1.0  0.34926  0.25107  0.71216  1.0000
  H   H153      1.0  0.33823  0.26207  0.74822  1.0000
  O   O235      1.0  0.30376  0.28091  0.76217  1.0000
  O   O236      1.0  0.27256  0.29132  0.73265  1.0000
  H   H154      1.0  0.28373  0.28026  0.69664  1.0000
  Cu  Cu32      1.0  0.27467  0.29496  0.76222  1.0000
  C   C535      1.0  0.76568  0.07941  0.71721  1.0000
  C   C536      1.0  0.76047  0.05856  0.70236  1.0000
  C   C537      1.0  0.75032  0.02906  0.70750  1.0000
  C   C538      1.0  0.74536  0.02033  0.72750  1.0000
  C   C539      1.0  0.75058  0.04122  0.74240  1.0000
  C   C540      1.0  0.76073  0.07072  0.73721  1.0000
  O   O237      1.0  0.77563  0.10835  0.71217  1.0000
  O   O238      1.0  0.76532  0.06707  0.68275  1.0000
  H   H155      1.0  0.74647  0.01366  0.69649  1.0000
  O   O239      1.0  0.73539  0.99133  0.73248  1.0000
  O   O240      1.0  0.74575  0.03281  0.76208  1.0000
  H   H156      1.0  0.76459  0.08615  0.74820  1.0000
  Cu  Cu33      1.0  0.73170  0.98963  0.76202  1.0000
  C   C541      1.0  0.36525  0.27852  0.64969  1.0000
  C   C542      1.0  0.38090  0.29938  0.66453  1.0000
  C   C543      1.0  0.40026  0.32887  0.65938  1.0000
  C   C544      1.0  0.40402  0.33758  0.63938  1.0000
  C   C545      1.0  0.38833  0.31668  0.62448  1.0000
  C   C546      1.0  0.36898  0.28719  0.62969  1.0000
  O   O241      1.0  0.34626  0.24959  0.65474  1.0000
  O   O242      1.0  0.37725  0.29088  0.68414  1.0000
  H   H157      1.0  0.41182  0.34427  0.67039  1.0000
  O   O243      1.0  0.42306  0.36658  0.63439  1.0000
  O   O244      1.0  0.39191  0.32508  0.60480  1.0000
  H   H158      1.0  0.35740  0.27175  0.61870  1.0000
  Cu  Cu34      1.0  0.42105  0.36825  0.60485  1.0000
  C   C547      1.0  0.72737  0.09174  0.66448  1.0000
  C   C548      1.0  0.74824  0.09695  0.64965  1.0000
  C   C549      1.0  0.73966  0.09204  0.62963  1.0000
  C   C550      1.0  0.71018  0.08190  0.62440  1.0000
  C   C551      1.0  0.68923  0.07666  0.63926  1.0000
  C   C552      1.0  0.69789  0.08160  0.65927  1.0000
  O   O245      1.0  0.73580  0.09656  0.68411  1.0000
  O   O246      1.0  0.77715  0.10689  0.65475  1.0000
  H   H159      1.0  0.75515  0.09591  0.61868  1.0000
  O   O247      1.0  0.70185  0.07710  0.60472  1.0000
  O   O248      1.0  0.66023  0.06669  0.63423  1.0000
  H   H160      1.0  0.68244  0.07773  0.67025  1.0000
  Cu  Cu35      1.0  0.65871  0.06307  0.60465  1.0000
  C   C553      1.0  0.92980  0.66144  0.64964  1.0000
  C   C554      1.0  0.93502  0.64580  0.66448  1.0000
  C   C555      1.0  0.94516  0.62645  0.65934  1.0000
  C   C556      1.0  0.95013  0.62269  0.63934  1.0000
  C   C557      1.0  0.94491  0.63837  0.62444  1.0000
  C   C558      1.0  0.93475  0.65771  0.62963  1.0000
  O   O249      1.0  0.91985  0.68043  0.65468  1.0000
  O   O250      1.0  0.93016  0.64945  0.68409  1.0000
  H   H161      1.0  0.94901  0.61489  0.67035  1.0000
  O   O251      1.0  0.96010  0.60366  0.63436  1.0000
  O   O252      1.0  0.94974  0.63479  0.60476  1.0000
  H   H162      1.0  0.93090  0.66929  0.61864  1.0000
  Cu  Cu36      1.0  0.96379  0.60566  0.60481  1.0000
