data_image0
_chemical_formula_structural       Fe16C7NCNCNC3NCNC11NCNC7NHO2H2O2H2O2H2O2HNiC7NCNCNC3NCNC11NCNC7NHO2H2O2H2O2H2O2HNiC7NCNCNC3NCNC11NCNC7NHO2H2O2H2O2H2O2HNiC7NCNCNC3NCNC11NCNC7NHO2H2O2H2O2H2O2HNiC7NCNCNC3NCNC11NCNC7NHO2H2O2H2O2H2O2HNiC7NCNCNC3NCNC11NCNC7NHO2H2O2H2O2H2O2HNiC7NCNCNC3NCNC11NCNC7NHO2H2O2H2O2H2O2HNiC7NCNCNC3NCNC11NCNC7NHO2H2O2H2O2H2O2HNiC7NCNCNC3NCNC11NCNC7NHO2H2O2H2O2H2O2HNiC7NCNCNC3NCNC11NCNC7NHO2H2O2H2O2H2O2HNiC7NCNCNC3NCNC11NCNC7NHO2H2O2H2O2H2O2HNiC7NCNCNC3NCNC11NCNC7NHO2H2O2H2O2H2O2HNiC6O2HO2HCuC6O2HO2HCuC6O2HO2HCuC6O2HO2HCuC6O2HO2HCuC6O2HO2HCuC6O2HO2HCuC6O2HO2HCuC6O2HO2HCuC6O2HO2HCuC6O2HO2HCuC6O2HO2HCuC6O2HO2HCuC6O2HO2HCuC6O2HO2HCuC6O2HO2HCuC6O2HO2HCuC6O2HO2HCuC6O2HO2HCuC6O2HO2HCuC6O2HO2HCuC6O2HO2HCuC6O2HO2HCuC6O2HO2HCuC6O2HO2HCuC6O2HO2HCuC6O2HO2HCuC6O2HO2HCuC6O2HO2HCuC6O2HO2HCuC6O2HO2HCuC6O2HO2HCuC6O2HO2HCuC6O2HO2HCuC6O2HO2HCuC6O2HO2HCuC6O2HO2HCuC6O2HO2HCuC6O2HO2HCuC6O2HO2HCuC6O2HO2HCuC6O2HO2HCuC6O2HO2HCuC6O2HO2HCuC6O2HO2HCuC6O2HO2HCuC6O2HO2HCuC6O2HO2HCu
_chemical_formula_sum              "Fe16 C672 N96 H192 O288 Ni12 Cu48"
_cell_length_a       50.9764
_cell_length_b       50.9757
_cell_length_c       101.947
_cell_angle_alpha    90.001
_cell_angle_beta     89.9997
_cell_angle_gamma    89.9997

_space_group_name_H-M_alt    "P 1"
_space_group_IT_number       1

loop_
  _space_group_symop_operation_xyz
  'x, y, z'

loop_
  _atom_site_type_symbol
  _atom_site_label
  _atom_site_symmetry_multiplicity
  _atom_site_fract_x
  _atom_site_fract_y
  _atom_site_fract_z
  _atom_site_occupancy
  Fe  Fe1       1.0  0.25067  0.03005  0.13052  1.0000
  Fe  Fe2       1.0  0.25067  0.03028  0.38052  1.0000
  Fe  Fe3       1.0  0.25039  0.03036  0.63053  1.0000
  Fe  Fe4       1.0  0.25042  0.03013  0.88051  1.0000
  Fe  Fe5       1.0  0.75041  0.03036  0.88039  1.0000
  Fe  Fe6       1.0  0.75040  0.03008  0.63040  1.0000
  Fe  Fe7       1.0  0.75063  0.03005  0.38041  1.0000
  Fe  Fe8       1.0  0.75063  0.03027  0.13040  1.0000
  Fe  Fe9       1.0  0.75064  0.53011  0.63051  1.0000
  Fe  Fe10      1.0  0.75068  0.53034  0.88052  1.0000
  Fe  Fe11      1.0  0.75042  0.53027  0.13051  1.0000
  Fe  Fe12      1.0  0.75046  0.53011  0.38050  1.0000
  Fe  Fe13      1.0  0.25040  0.53032  0.38039  1.0000
  Fe  Fe14      1.0  0.25041  0.53004  0.13040  1.0000
  Fe  Fe15      1.0  0.25065  0.53008  0.88039  1.0000
  Fe  Fe16      1.0  0.25067  0.53036  0.63038  1.0000
  C   C1        1.0  0.10205  0.83833  0.12895  1.0000
  C   C2        1.0  0.10976  0.86770  0.12892  1.0000
  C   C3        1.0  0.08819  0.88930  0.12887  1.0000
  C   C4        1.0  0.05880  0.88163  0.12885  1.0000
  C   C5        1.0  0.05212  0.85234  0.12888  1.0000
  C   C6        1.0  0.07275  0.83168  0.12893  1.0000
  C   C7        1.0  0.05899  0.80503  0.12895  1.0000
  N   N1        1.0  0.02915  0.80875  0.12890  1.0000
  C   C8        1.0  0.02546  0.83860  0.12886  1.0000
  N   N2        1.0  0.00010  0.85329  0.12880  1.0000
  C   C9        1.0  0.97568  0.83862  0.12880  1.0000
  N   N3        1.0  0.97197  0.80878  0.12885  1.0000
  C   C10       1.0  0.94212  0.80509  0.12887  1.0000
  C   C11       1.0  0.92838  0.83175  0.12882  1.0000
  C   C12       1.0  0.94902  0.85239  0.12879  1.0000
  N   N4        1.0  0.97194  0.75160  0.12888  1.0000
  C   C13       1.0  0.94210  0.75531  0.12891  1.0000
  N   N5        1.0  0.92743  0.78021  0.12893  1.0000
  C   C14       1.0  0.92833  0.72866  0.12889  1.0000
  C   C15       1.0  0.94896  0.70801  0.12883  1.0000
  C   C16       1.0  0.97563  0.72176  0.12882  1.0000
  C   C17       1.0  0.94236  0.88168  0.12877  1.0000
  C   C18       1.0  0.91298  0.88937  0.12877  1.0000
  C   C19       1.0  0.89139  0.86779  0.12878  1.0000
  C   C20       1.0  0.89908  0.83841  0.12882  1.0000
  C   C21       1.0  0.94229  0.67872  0.12881  1.0000
  C   C22       1.0  0.91291  0.67104  0.12885  1.0000
  C   C23       1.0  0.89134  0.69263  0.12889  1.0000
  C   C24       1.0  0.89903  0.72201  0.12891  1.0000
  N   N6        1.0  0.02912  0.75157  0.12886  1.0000
  C   C25       1.0  0.02540  0.72173  0.12880  1.0000
  N   N7        1.0  0.00010  0.70707  0.12875  1.0000
  C   C26       1.0  0.05204  0.70796  0.12880  1.0000
  C   C27       1.0  0.07270  0.72859  0.12887  1.0000
  C   C28       1.0  0.05896  0.75526  0.12891  1.0000
  C   C29       1.0  0.10199  0.72191  0.12887  1.0000
  C   C30       1.0  0.10965  0.69252  0.12881  1.0000
  C   C31       1.0  0.08805  0.67095  0.12877  1.0000
  C   C32       1.0  0.05868  0.67867  0.12876  1.0000
  N   N8        1.0  0.07365  0.78014  0.12898  1.0000
  H   H1        1.0  0.11637  0.82352  0.12898  1.0000
  O   O1        1.0  0.13438  0.87436  0.12893  1.0000
  O   O2        1.0  0.09488  0.91391  0.12885  1.0000
  H   H2        1.0  0.04401  0.89596  0.12881  1.0000
  H   H3        1.0  0.95716  0.89601  0.12876  1.0000
  O   O3        1.0  0.90631  0.91398  0.12877  1.0000
  O   O4        1.0  0.86678  0.87446  0.12876  1.0000
  H   H4        1.0  0.88476  0.82361  0.12883  1.0000
  H   H5        1.0  0.95708  0.66439  0.12877  1.0000
  O   O5        1.0  0.90623  0.64643  0.12885  1.0000
  O   O6        1.0  0.86672  0.68597  0.12892  1.0000
  H   H6        1.0  0.88471  0.73681  0.12894  1.0000
  H   H7        1.0  0.11632  0.73669  0.12890  1.0000
  O   O7        1.0  0.13426  0.68583  0.12879  1.0000
  O   O8        1.0  0.09470  0.64633  0.12874  1.0000
  H   H8        1.0  0.04386  0.66435  0.12873  1.0000
  Ni  Ni1       1.0  0.00010  0.78018  0.12889  1.0000
  C   C33       1.0  0.39902  0.72201  0.37898  1.0000
  C   C34       1.0  0.39131  0.69264  0.37895  1.0000
  C   C35       1.0  0.41288  0.67104  0.37890  1.0000
  C   C36       1.0  0.44227  0.67872  0.37888  1.0000
  C   C37       1.0  0.44895  0.70801  0.37891  1.0000
  C   C38       1.0  0.42832  0.72866  0.37896  1.0000
  C   C39       1.0  0.44209  0.75531  0.37898  1.0000
  N   N9        1.0  0.47192  0.75159  0.37894  1.0000
  C   C40       1.0  0.47561  0.72174  0.37889  1.0000
  N   N10       1.0  0.50050  0.70706  0.37883  1.0000
  C   C41       1.0  0.52539  0.72172  0.37883  1.0000
  N   N11       1.0  0.52910  0.75156  0.37888  1.0000
  C   C42       1.0  0.55895  0.75526  0.37890  1.0000
  C   C43       1.0  0.57269  0.72860  0.37886  1.0000
  C   C44       1.0  0.55205  0.70796  0.37882  1.0000
  N   N12       1.0  0.52913  0.80874  0.37891  1.0000
  C   C45       1.0  0.55897  0.80503  0.37895  1.0000
  N   N13       1.0  0.57364  0.78014  0.37897  1.0000
  C   C46       1.0  0.57274  0.83168  0.37892  1.0000
  C   C47       1.0  0.55210  0.85233  0.37887  1.0000
  C   C48       1.0  0.52544  0.83859  0.37885  1.0000
  C   C49       1.0  0.55871  0.67866  0.37880  1.0000
  C   C50       1.0  0.58809  0.67097  0.37880  1.0000
  C   C51       1.0  0.60968  0.69256  0.37881  1.0000
  C   C52       1.0  0.60199  0.72193  0.37885  1.0000
  C   C53       1.0  0.55878  0.88162  0.37885  1.0000
  C   C54       1.0  0.58816  0.88930  0.37889  1.0000
  C   C55       1.0  0.60973  0.86771  0.37893  1.0000
  C   C56       1.0  0.60203  0.83834  0.37895  1.0000
  N   N14       1.0  0.47195  0.80877  0.37890  1.0000
  C   C57       1.0  0.47567  0.83861  0.37884  1.0000
  N   N15       1.0  0.50056  0.85327  0.37879  1.0000
  C   C58       1.0  0.44903  0.85238  0.37884  1.0000
  C   C59       1.0  0.42837  0.83175  0.37891  1.0000
  C   C60       1.0  0.44211  0.80508  0.37895  1.0000
  C   C61       1.0  0.39908  0.83843  0.37891  1.0000
  C   C62       1.0  0.39142  0.86782  0.37885  1.0000
  C   C63       1.0  0.41302  0.88939  0.37881  1.0000
  C   C64       1.0  0.44239  0.88168  0.37880  1.0000
  N   N16       1.0  0.42742  0.78020  0.37902  1.0000
  H   H9        1.0  0.38470  0.73682  0.37901  1.0000
  O   O9        1.0  0.36669  0.68598  0.37896  1.0000
  O   O10       1.0  0.40619  0.64643  0.37888  1.0000
  H   H10       1.0  0.45706  0.66438  0.37884  1.0000
  H   H11       1.0  0.54392  0.66434  0.37878  1.0000
  O   O11       1.0  0.59477  0.64636  0.37879  1.0000
  O   O12       1.0  0.63429  0.68589  0.37879  1.0000
  H   H12       1.0  0.61631  0.73673  0.37886  1.0000
  H   H13       1.0  0.54398  0.89595  0.37881  1.0000
  O   O13       1.0  0.59484  0.91391  0.37889  1.0000
  O   O14       1.0  0.63435  0.87437  0.37896  1.0000
  H   H14       1.0  0.61636  0.82353  0.37898  1.0000
  H   H15       1.0  0.38475  0.82364  0.37894  1.0000
  O   O15       1.0  0.36681  0.87451  0.37883  1.0000
  O   O16       1.0  0.40636  0.91401  0.37878  1.0000
  H   H16       1.0  0.45720  0.89599  0.37877  1.0000
  Ni  Ni2       1.0  0.50053  0.78016  0.37893  1.0000
  C   C65       1.0  0.60205  0.33838  0.62896  1.0000
  C   C66       1.0  0.60976  0.36775  0.62893  1.0000
  C   C67       1.0  0.58819  0.38935  0.62888  1.0000
  C   C68       1.0  0.55880  0.38168  0.62886  1.0000
  C   C69       1.0  0.55212  0.35239  0.62889  1.0000
  C   C70       1.0  0.57275  0.33173  0.62895  1.0000
  C   C71       1.0  0.55898  0.30509  0.62896  1.0000
  N   N17       1.0  0.52914  0.30881  0.62892  1.0000
  C   C72       1.0  0.52545  0.33865  0.62887  1.0000
  N   N18       1.0  0.50057  0.35334  0.62881  1.0000
  C   C73       1.0  0.47567  0.33868  0.62882  1.0000
  N   N19       1.0  0.47196  0.30884  0.62886  1.0000
  C   C74       1.0  0.44212  0.30515  0.62888  1.0000
  C   C75       1.0  0.42837  0.33181  0.62884  1.0000
  C   C76       1.0  0.44902  0.35244  0.62880  1.0000
  N   N20       1.0  0.47193  0.25166  0.62889  1.0000
  C   C77       1.0  0.44209  0.25537  0.62893  1.0000
  N   N21       1.0  0.42742  0.28027  0.62895  1.0000
  C   C78       1.0  0.42832  0.22872  0.62891  1.0000
  C   C79       1.0  0.44895  0.20807  0.62885  1.0000
  C   C80       1.0  0.47561  0.22181  0.62883  1.0000
  C   C81       1.0  0.44236  0.38174  0.62878  1.0000
  C   C82       1.0  0.41298  0.38943  0.62878  1.0000
  C   C83       1.0  0.39139  0.36785  0.62879  1.0000
  C   C84       1.0  0.39908  0.33847  0.62883  1.0000
  C   C85       1.0  0.44228  0.17878  0.62883  1.0000
  C   C86       1.0  0.41290  0.17110  0.62887  1.0000
  C   C87       1.0  0.39132  0.19270  0.62891  1.0000
  C   C88       1.0  0.39902  0.22207  0.62893  1.0000
  N   N22       1.0  0.52911  0.25163  0.62888  1.0000
  C   C89       1.0  0.52539  0.22179  0.62882  1.0000
  N   N23       1.0  0.50049  0.20712  0.62877  1.0000
  C   C90       1.0  0.55203  0.20802  0.62882  1.0000
  C   C91       1.0  0.57269  0.22864  0.62889  1.0000
  C   C92       1.0  0.55895  0.25531  0.62893  1.0000
  C   C93       1.0  0.60198  0.22195  0.62889  1.0000
  C   C94       1.0  0.60964  0.19257  0.62883  1.0000
  C   C95       1.0  0.58804  0.17100  0.62879  1.0000
  C   C96       1.0  0.55866  0.17872  0.62878  1.0000
  N   N24       1.0  0.57364  0.28019  0.62900  1.0000
  H   H17       1.0  0.61636  0.32357  0.62899  1.0000
  O   O17       1.0  0.63438  0.37441  0.62894  1.0000
  O   O18       1.0  0.59488  0.41396  0.62886  1.0000
  H   H18       1.0  0.54401  0.39601  0.62882  1.0000
  H   H19       1.0  0.45716  0.39606  0.62877  1.0000
  O   O19       1.0  0.40631  0.41404  0.62878  1.0000
  O   O20       1.0  0.36678  0.37452  0.62877  1.0000
  H   H20       1.0  0.38475  0.32367  0.62885  1.0000
  H   H21       1.0  0.45707  0.16445  0.62879  1.0000
  O   O21       1.0  0.40621  0.14649  0.62887  1.0000
  O   O22       1.0  0.36671  0.18603  0.62894  1.0000
  H   H22       1.0  0.38470  0.23687  0.62896  1.0000
  H   H23       1.0  0.61631  0.23674  0.62892  1.0000
  O   O23       1.0  0.63425  0.18587  0.62881  1.0000
  O   O24       1.0  0.59469  0.14638  0.62876  1.0000
  H   H24       1.0  0.54385  0.16441  0.62875  1.0000
  Ni  Ni3       1.0  0.50054  0.28023  0.62891  1.0000
  C   C97       1.0  0.89902  0.22207  0.87895  1.0000
  C   C98       1.0  0.89131  0.19269  0.87891  1.0000
  C   C99       1.0  0.91288  0.17110  0.87887  1.0000
  C   C100      1.0  0.94227  0.17877  0.87884  1.0000
  C   C101      1.0  0.94895  0.20806  0.87887  1.0000
  C   C102      1.0  0.92832  0.22871  0.87893  1.0000
  C   C103      1.0  0.94209  0.25536  0.87895  1.0000
  N   N25       1.0  0.97193  0.25164  0.87890  1.0000
  C   C104      1.0  0.97561  0.22180  0.87885  1.0000
  N   N26       1.0  0.00010  0.20711  0.87879  1.0000
  C   C105      1.0  0.02539  0.22177  0.87880  1.0000
  N   N27       1.0  0.02911  0.25161  0.87884  1.0000
  C   C106      1.0  0.05895  0.25530  0.87886  1.0000
  C   C107      1.0  0.07269  0.22864  0.87882  1.0000
  C   C108      1.0  0.05205  0.20800  0.87878  1.0000
  N   N28       1.0  0.02914  0.30879  0.87887  1.0000
  C   C109      1.0  0.05898  0.30508  0.87891  1.0000
  N   N29       1.0  0.07364  0.28018  0.87893  1.0000
  C   C110      1.0  0.07274  0.33173  0.87888  1.0000
  C   C111      1.0  0.05211  0.35238  0.87883  1.0000
  C   C112      1.0  0.02545  0.33863  0.87881  1.0000
  C   C113      1.0  0.05871  0.17871  0.87876  1.0000
  C   C114      1.0  0.08809  0.17102  0.87876  1.0000
  C   C115      1.0  0.10968  0.19260  0.87877  1.0000
  C   C116      1.0  0.10199  0.22198  0.87881  1.0000
  C   C117      1.0  0.05879  0.38167  0.87881  1.0000
  C   C118      1.0  0.08817  0.38935  0.87885  1.0000
  C   C119      1.0  0.10974  0.36776  0.87889  1.0000
  C   C120      1.0  0.10204  0.33838  0.87891  1.0000
  N   N30       1.0  0.97196  0.30882  0.87886  1.0000
  C   C121      1.0  0.97568  0.33866  0.87880  1.0000
  N   N31       1.0  0.00010  0.35332  0.87875  1.0000
  C   C122      1.0  0.94903  0.35243  0.87880  1.0000
  C   C123      1.0  0.92838  0.33180  0.87887  1.0000
  C   C124      1.0  0.94212  0.30513  0.87891  1.0000
  C   C125      1.0  0.89909  0.33849  0.87887  1.0000
  C   C126      1.0  0.89142  0.36788  0.87881  1.0000
  C   C127      1.0  0.91303  0.38944  0.87877  1.0000
  C   C128      1.0  0.94240  0.38173  0.87876  1.0000
  N   N32       1.0  0.92743  0.28026  0.87898  1.0000
  H   H25       1.0  0.88470  0.23688  0.87898  1.0000
  O   O25       1.0  0.86669  0.18604  0.87892  1.0000
  O   O26       1.0  0.90619  0.14649  0.87885  1.0000
  H   H26       1.0  0.95706  0.16444  0.87881  1.0000
  H   H27       1.0  0.04391  0.16438  0.87875  1.0000
  O   O27       1.0  0.09476  0.14641  0.87876  1.0000
  O   O28       1.0  0.13429  0.18593  0.87875  1.0000
  H   H28       1.0  0.11631  0.23678  0.87882  1.0000
  H   H29       1.0  0.04399  0.39600  0.87877  1.0000
  O   O29       1.0  0.09485  0.41396  0.87885  1.0000
  O   O30       1.0  0.13436  0.37442  0.87892  1.0000
  H   H30       1.0  0.11636  0.32358  0.87894  1.0000
  H   H31       1.0  0.88475  0.32370  0.87890  1.0000
  O   O31       1.0  0.86682  0.37457  0.87879  1.0000
  O   O32       1.0  0.90637  0.41406  0.87874  1.0000
  H   H32       1.0  0.95721  0.39604  0.87873  1.0000
  Ni  Ni4       1.0  0.00010  0.28021  0.87889  1.0000
  C   C129      1.0  0.10205  0.02726  0.47638  1.0000
  C   C130      1.0  0.10976  0.02720  0.46169  1.0000
  C   C131      1.0  0.08819  0.02709  0.45089  1.0000
  C   C132      1.0  0.05880  0.02703  0.45473  1.0000
  C   C133      1.0  0.05212  0.02709  0.46938  1.0000
  C   C134      1.0  0.07275  0.02721  0.47970  1.0000
  C   C135      1.0  0.05898  0.02724  0.49303  1.0000
  N   N33       1.0  0.02914  0.02714  0.49117  1.0000
  C   C136      1.0  0.02545  0.02704  0.47625  1.0000
  N   N34       1.0  0.00010  0.02690  0.46890  1.0000
  C   C137      1.0  0.97567  0.02691  0.47623  1.0000
  N   N35       1.0  0.97196  0.02700  0.49115  1.0000
  C   C138      1.0  0.94211  0.02702  0.49300  1.0000
  C   C139      1.0  0.92837  0.02693  0.47967  1.0000
  C   C140      1.0  0.94902  0.02686  0.46935  1.0000
  N   N36       1.0  0.97193  0.02706  0.51974  1.0000
  C   C141      1.0  0.94209  0.02712  0.51789  1.0000
  N   N37       1.0  0.92742  0.02715  0.50544  1.0000
  C   C142      1.0  0.92832  0.02707  0.53121  1.0000
  C   C143      1.0  0.94895  0.02697  0.54154  1.0000
  C   C144      1.0  0.97562  0.02695  0.53467  1.0000
  C   C145      1.0  0.94235  0.02682  0.45470  1.0000
  C   C146      1.0  0.91298  0.02680  0.45086  1.0000
  C   C147      1.0  0.89139  0.02681  0.46165  1.0000
  C   C148      1.0  0.89908  0.02690  0.47634  1.0000
  C   C149      1.0  0.94228  0.02692  0.55619  1.0000
  C   C150      1.0  0.91290  0.02699  0.56002  1.0000
  C   C151      1.0  0.89133  0.02706  0.54923  1.0000
  C   C152      1.0  0.89902  0.02710  0.53454  1.0000
  N   N38       1.0  0.02911  0.02706  0.51976  1.0000
  C   C153      1.0  0.02539  0.02694  0.53468  1.0000
  N   N39       1.0  0.00010  0.02684  0.54201  1.0000
  C   C154      1.0  0.05203  0.02696  0.54157  1.0000
  C   C155      1.0  0.07269  0.02710  0.53125  1.0000
  C   C156      1.0  0.05895  0.02718  0.51792  1.0000
  C   C157      1.0  0.10198  0.02712  0.53459  1.0000
  C   C158      1.0  0.10964  0.02700  0.54929  1.0000
  C   C159      1.0  0.08804  0.02691  0.56007  1.0000
  C   C160      1.0  0.05867  0.02689  0.55622  1.0000
  N   N40       1.0  0.07364  0.02732  0.50548  1.0000
  H   H33       1.0  0.11636  0.02733  0.48379  1.0000
  O   O33       1.0  0.13438  0.02723  0.45836  1.0000
  O   O34       1.0  0.09488  0.02705  0.43859  1.0000
  H   H34       1.0  0.04401  0.02695  0.44756  1.0000
  H   H35       1.0  0.95715  0.02679  0.44754  1.0000
  O   O35       1.0  0.90630  0.02679  0.43855  1.0000
  O   O36       1.0  0.86678  0.02676  0.45831  1.0000
  H   H36       1.0  0.88475  0.02692  0.48374  1.0000
  H   H37       1.0  0.95707  0.02686  0.56335  1.0000
  O   O37       1.0  0.90622  0.02699  0.57233  1.0000
  O   O38       1.0  0.86671  0.02711  0.55256  1.0000
  H   H38       1.0  0.88470  0.02715  0.52714  1.0000
  H   H39       1.0  0.11631  0.02719  0.52720  1.0000
  O   O39       1.0  0.13425  0.02697  0.55264  1.0000
  O   O40       1.0  0.09469  0.02686  0.57238  1.0000
  H   H40       1.0  0.04385  0.02681  0.56337  1.0000
  Ni  Ni5       1.0  0.00010  0.02711  0.50546  1.0000
  C   C161      1.0  0.25358  0.67870  0.78453  1.0000
  C   C162      1.0  0.25365  0.67099  0.79922  1.0000
  C   C163      1.0  0.25373  0.69256  0.81002  1.0000
  C   C164      1.0  0.25377  0.72195  0.80618  1.0000
  C   C165      1.0  0.25371  0.72863  0.79154  1.0000
  C   C166      1.0  0.25360  0.70800  0.78121  1.0000
  C   C167      1.0  0.25356  0.72177  0.76789  1.0000
  N   N41       1.0  0.25364  0.75161  0.76975  1.0000
  C   C168      1.0  0.25373  0.75530  0.78467  1.0000
  N   N42       1.0  0.25384  0.78018  0.79202  1.0000
  C   C169      1.0  0.25381  0.80508  0.78468  1.0000
  N   N43       1.0  0.25372  0.80879  0.76976  1.0000
  C   C170      1.0  0.25366  0.83864  0.76792  1.0000
  C   C171      1.0  0.25374  0.85238  0.78125  1.0000
  C   C172      1.0  0.25382  0.83173  0.79157  1.0000
  N   N44       1.0  0.25366  0.80882  0.74117  1.0000
  C   C173      1.0  0.25357  0.83867  0.74303  1.0000
  N   N45       1.0  0.25352  0.85333  0.75548  1.0000
  C   C174      1.0  0.25361  0.85243  0.72970  1.0000
  C   C175      1.0  0.25373  0.83180  0.71938  1.0000
  C   C176      1.0  0.25378  0.80514  0.72625  1.0000
  C   C177      1.0  0.25386  0.83840  0.80621  1.0000
  C   C178      1.0  0.25384  0.86778  0.81006  1.0000
  C   C179      1.0  0.25381  0.88936  0.79927  1.0000
  C   C180      1.0  0.25374  0.88167  0.78458  1.0000
  C   C181      1.0  0.25378  0.83848  0.70473  1.0000
  C   C182      1.0  0.25368  0.86786  0.70089  1.0000
  C   C183      1.0  0.25358  0.88943  0.71169  1.0000
  C   C184      1.0  0.25355  0.88173  0.72638  1.0000
  N   N46       1.0  0.25371  0.75165  0.74116  1.0000
  C   C185      1.0  0.25384  0.75537  0.72624  1.0000
  N   N47       1.0  0.25392  0.78026  0.71890  1.0000
  C   C186      1.0  0.25384  0.72872  0.71935  1.0000
  C   C187      1.0  0.25372  0.70806  0.72966  1.0000
  C   C188      1.0  0.25363  0.72180  0.74300  1.0000
  C   C189      1.0  0.25374  0.67878  0.72632  1.0000
  C   C190      1.0  0.25386  0.67111  0.71162  1.0000
  C   C191      1.0  0.25393  0.69272  0.70084  1.0000
  C   C192      1.0  0.25393  0.72209  0.70470  1.0000
  N   N48       1.0  0.25350  0.70711  0.75544  1.0000
  H   H41       1.0  0.25353  0.66439  0.77713  1.0000
  O   O41       1.0  0.25364  0.64637  0.80255  1.0000
  O   O42       1.0  0.25378  0.68587  0.82232  1.0000
  H   H42       1.0  0.25383  0.73674  0.81335  1.0000
  H   H43       1.0  0.25390  0.82360  0.81338  1.0000
  O   O43       1.0  0.25385  0.87445  0.82237  1.0000
  O   O44       1.0  0.25384  0.91398  0.80261  1.0000
  H   H44       1.0  0.25370  0.89600  0.77718  1.0000
  H   H45       1.0  0.25385  0.82368  0.69756  1.0000
  O   O45       1.0  0.25367  0.87454  0.68859  1.0000
  O   O46       1.0  0.25351  0.91405  0.70836  1.0000
  H   H46       1.0  0.25348  0.89605  0.73378  1.0000
  H   H47       1.0  0.25368  0.66444  0.73371  1.0000
  O   O47       1.0  0.25392  0.64650  0.70828  1.0000
  O   O48       1.0  0.25400  0.68606  0.68853  1.0000
  H   H48       1.0  0.25399  0.73690  0.69754  1.0000
  Ni  Ni6       1.0  0.25364  0.78022  0.75546  1.0000
  C   C193      1.0  0.39901  0.03320  0.97637  1.0000
  C   C194      1.0  0.39130  0.03326  0.96168  1.0000
  C   C195      1.0  0.41288  0.03337  0.95088  1.0000
  C   C196      1.0  0.44226  0.03343  0.95472  1.0000
  C   C197      1.0  0.44895  0.03337  0.96936  1.0000
  C   C198      1.0  0.42831  0.03324  0.97969  1.0000
  C   C199      1.0  0.44208  0.03321  0.99302  1.0000
  N   N49       1.0  0.47192  0.03331  0.99116  1.0000
  C   C200      1.0  0.47561  0.03341  0.97623  1.0000
  N   N50       1.0  0.50049  0.03355  0.96889  1.0000
  C   C201      1.0  0.52539  0.03354  0.97622  1.0000
  N   N51       1.0  0.52910  0.03345  0.99114  1.0000
  C   C202      1.0  0.55895  0.03342  0.99299  1.0000
  C   C203      1.0  0.57269  0.03352  0.97966  1.0000
  C   C204      1.0  0.55204  0.03358  0.96934  1.0000
  N   N52       1.0  0.52913  0.03338  0.01973  1.0000
  C   C205      1.0  0.55897  0.03332  0.01788  1.0000
  N   N53       1.0  0.57364  0.03329  0.00543  1.0000
  C   C206      1.0  0.57274  0.03337  0.03120  1.0000
  C   C207      1.0  0.55210  0.03347  0.04153  1.0000
  C   C208      1.0  0.52544  0.03349  0.03466  1.0000
  C   C209      1.0  0.55871  0.03363  0.95469  1.0000
  C   C210      1.0  0.58809  0.03365  0.95085  1.0000
  C   C211      1.0  0.60967  0.03363  0.96164  1.0000
  C   C212      1.0  0.60198  0.03355  0.97633  1.0000
  C   C213      1.0  0.55878  0.03352  0.05617  1.0000
  C   C214      1.0  0.58816  0.03345  0.06001  1.0000
  C   C215      1.0  0.60973  0.03337  0.04922  1.0000
  C   C216      1.0  0.60203  0.03334  0.03453  1.0000
  N   N54       1.0  0.47195  0.03338  0.01975  1.0000
  C   C217      1.0  0.47567  0.03350  0.03467  1.0000
  N   N55       1.0  0.50056  0.03361  0.04200  1.0000
  C   C218      1.0  0.44903  0.03348  0.04155  1.0000
  C   C219      1.0  0.42837  0.03335  0.03124  1.0000
  C   C220      1.0  0.44211  0.03327  0.01790  1.0000
  C   C221      1.0  0.39908  0.03333  0.03458  1.0000
  C   C222      1.0  0.39142  0.03345  0.04928  1.0000
  C   C223      1.0  0.41302  0.03353  0.06006  1.0000
  C   C224      1.0  0.44239  0.03356  0.05620  1.0000
  N   N56       1.0  0.42742  0.03313  0.00546  1.0000
  H   H49       1.0  0.38470  0.03312  0.98377  1.0000
  O   O49       1.0  0.36669  0.03323  0.95835  1.0000
  O   O50       1.0  0.40619  0.03341  0.93858  1.0000
  H   H50       1.0  0.45706  0.03351  0.94755  1.0000
  H   H51       1.0  0.54391  0.03366  0.94753  1.0000
  O   O51       1.0  0.59476  0.03366  0.93854  1.0000
  O   O52       1.0  0.63429  0.03369  0.95830  1.0000
  H   H52       1.0  0.61631  0.03352  0.98373  1.0000
  H   H53       1.0  0.54398  0.03358  0.06334  1.0000
  O   O53       1.0  0.59484  0.03344  0.07232  1.0000
  O   O54       1.0  0.63435  0.03333  0.05255  1.0000
  H   H54       1.0  0.61636  0.03329  0.02713  1.0000
  H   H55       1.0  0.38474  0.03326  0.02719  1.0000
  O   O55       1.0  0.36681  0.03348  0.05262  1.0000
  O   O56       1.0  0.40636  0.03359  0.07237  1.0000
  H   H56       1.0  0.45720  0.03363  0.06336  1.0000
  Ni  Ni7       1.0  0.50052  0.03334  0.00544  1.0000
  C   C225      1.0  0.24712  0.17870  0.28459  1.0000
  C   C226      1.0  0.24718  0.17102  0.29928  1.0000
  C   C227      1.0  0.24726  0.19262  0.31007  1.0000
  C   C228      1.0  0.24730  0.22200  0.30622  1.0000
  C   C229      1.0  0.24724  0.22865  0.29157  1.0000
  C   C230      1.0  0.24713  0.20800  0.28126  1.0000
  C   C231      1.0  0.24709  0.22174  0.26792  1.0000
  N   N57       1.0  0.24717  0.25158  0.26977  1.0000
  C   C232      1.0  0.24726  0.25530  0.28469  1.0000
  N   N58       1.0  0.24737  0.28020  0.29202  1.0000
  C   C233      1.0  0.24734  0.30508  0.28468  1.0000
  N   N59       1.0  0.24725  0.30877  0.26975  1.0000
  C   C234      1.0  0.24719  0.33861  0.26789  1.0000
  C   C235      1.0  0.24727  0.35238  0.28122  1.0000
  C   C236      1.0  0.24735  0.33175  0.29155  1.0000
  N   N60       1.0  0.24719  0.30874  0.24116  1.0000
  C   C237      1.0  0.24710  0.33858  0.24301  1.0000
  N   N61       1.0  0.24705  0.35327  0.25545  1.0000
  C   C238      1.0  0.24714  0.35232  0.22967  1.0000
  C   C239      1.0  0.24727  0.33167  0.21936  1.0000
  C   C240      1.0  0.24731  0.30502  0.22624  1.0000
  C   C241      1.0  0.24739  0.33845  0.30619  1.0000
  C   C242      1.0  0.24737  0.36783  0.31002  1.0000
  C   C243      1.0  0.24734  0.38940  0.29922  1.0000
  C   C244      1.0  0.24727  0.38168  0.28454  1.0000
  C   C245      1.0  0.24731  0.33831  0.20471  1.0000
  C   C246      1.0  0.24721  0.36769  0.20085  1.0000
  C   C247      1.0  0.24711  0.38928  0.21164  1.0000
  C   C248      1.0  0.24708  0.38161  0.22633  1.0000
  N   N62       1.0  0.24725  0.25156  0.24118  1.0000
  C   C249      1.0  0.24737  0.25525  0.22626  1.0000
  N   N63       1.0  0.24745  0.28013  0.21891  1.0000
  C   C250      1.0  0.24738  0.22859  0.21938  1.0000
  C   C251      1.0  0.24726  0.20795  0.22971  1.0000
  C   C252      1.0  0.24717  0.22172  0.24304  1.0000
  C   C253      1.0  0.24727  0.17866  0.22638  1.0000
  C   C254      1.0  0.24740  0.17096  0.21169  1.0000
  C   C255      1.0  0.24747  0.19254  0.20089  1.0000
  C   C256      1.0  0.24746  0.22192  0.20474  1.0000
  N   N64       1.0  0.24704  0.20705  0.25548  1.0000
  H   H57       1.0  0.24706  0.16437  0.27719  1.0000
  O   O57       1.0  0.24717  0.14641  0.30262  1.0000
  O   O58       1.0  0.24730  0.18595  0.32238  1.0000
  H   H58       1.0  0.24736  0.23681  0.31338  1.0000
  H   H59       1.0  0.24742  0.32366  0.31336  1.0000
  O   O59       1.0  0.24737  0.37453  0.32233  1.0000
  O   O60       1.0  0.24737  0.41402  0.30254  1.0000
  H   H60       1.0  0.24723  0.39599  0.27713  1.0000
  H   H61       1.0  0.24739  0.32351  0.19755  1.0000
  O   O61       1.0  0.24720  0.37434  0.18855  1.0000
  O   O62       1.0  0.24704  0.41389  0.20830  1.0000
  H   H62       1.0  0.24702  0.39595  0.23373  1.0000
  H   H63       1.0  0.24721  0.16434  0.23378  1.0000
  O   O63       1.0  0.24746  0.14635  0.20835  1.0000
  O   O64       1.0  0.24754  0.18587  0.18859  1.0000
  H   H64       1.0  0.24753  0.23672  0.19757  1.0000
  Ni  Ni8       1.0  0.24717  0.28016  0.25547  1.0000
  C   C257      1.0  0.75356  0.17865  0.28454  1.0000
  C   C258      1.0  0.75363  0.17095  0.29923  1.0000
  C   C259      1.0  0.75371  0.19252  0.31003  1.0000
  C   C260      1.0  0.75375  0.22191  0.30619  1.0000
  C   C261      1.0  0.75369  0.22859  0.29155  1.0000
  C   C262      1.0  0.75358  0.20795  0.28122  1.0000
  C   C263      1.0  0.75354  0.22172  0.26789  1.0000
  N   N65       1.0  0.75362  0.25156  0.26975  1.0000
  C   C264      1.0  0.75371  0.25525  0.28467  1.0000
  N   N66       1.0  0.75383  0.28013  0.29202  1.0000
  C   C265      1.0  0.75380  0.30503  0.28469  1.0000
  N   N67       1.0  0.75371  0.30874  0.26976  1.0000
  C   C266      1.0  0.75365  0.33859  0.26792  1.0000
  C   C267      1.0  0.75374  0.35233  0.28125  1.0000
  C   C268      1.0  0.75381  0.33169  0.29157  1.0000
  N   N68       1.0  0.75365  0.30877  0.24117  1.0000
  C   C269      1.0  0.75356  0.33861  0.24303  1.0000
  N   N69       1.0  0.75352  0.35328  0.25548  1.0000
  C   C270      1.0  0.75360  0.35237  0.22970  1.0000
  C   C271      1.0  0.75372  0.33174  0.21938  1.0000
  C   C272      1.0  0.75377  0.30508  0.22625  1.0000
  C   C273      1.0  0.75386  0.33836  0.30621  1.0000
  C   C274      1.0  0.75384  0.36774  0.31006  1.0000
  C   C275      1.0  0.75381  0.38932  0.29927  1.0000
  C   C276      1.0  0.75374  0.38163  0.28458  1.0000
  C   C277      1.0  0.75377  0.33841  0.20473  1.0000
  C   C278      1.0  0.75367  0.36779  0.20089  1.0000
  C   C279      1.0  0.75358  0.38936  0.21169  1.0000
  C   C280      1.0  0.75355  0.38167  0.22637  1.0000
  N   N70       1.0  0.75370  0.25159  0.24116  1.0000
  C   C281      1.0  0.75382  0.25530  0.22624  1.0000
  N   N71       1.0  0.75390  0.28019  0.21891  1.0000
  C   C282      1.0  0.75382  0.22866  0.21936  1.0000
  C   C283      1.0  0.75370  0.20800  0.22967  1.0000
  C   C284      1.0  0.75361  0.22174  0.24301  1.0000
  C   C285      1.0  0.75371  0.17871  0.22633  1.0000
  C   C286      1.0  0.75383  0.17105  0.21163  1.0000
  C   C287      1.0  0.75391  0.19265  0.20085  1.0000
  C   C288      1.0  0.75390  0.22202  0.20471  1.0000
  N   N72       1.0  0.75348  0.20706  0.25545  1.0000
  H   H65       1.0  0.75350  0.16434  0.27714  1.0000
  O   O65       1.0  0.75361  0.14633  0.30256  1.0000
  O   O66       1.0  0.75375  0.18583  0.32233  1.0000
  H   H66       1.0  0.75381  0.23670  0.31336  1.0000
  H   H67       1.0  0.75389  0.32356  0.31338  1.0000
  O   O67       1.0  0.75385  0.37441  0.32237  1.0000
  O   O68       1.0  0.75385  0.41393  0.30260  1.0000
  H   H68       1.0  0.75371  0.39595  0.27718  1.0000
  H   H69       1.0  0.75384  0.32361  0.19757  1.0000
  O   O69       1.0  0.75366  0.37447  0.18858  1.0000
  O   O70       1.0  0.75351  0.41398  0.20835  1.0000
  H   H70       1.0  0.75348  0.39599  0.23378  1.0000
  H   H71       1.0  0.75365  0.16438  0.23372  1.0000
  O   O71       1.0  0.75389  0.14644  0.20829  1.0000
  O   O72       1.0  0.75397  0.18599  0.18854  1.0000
  H   H72       1.0  0.75397  0.23683  0.19755  1.0000
  Ni  Ni9       1.0  0.75362  0.28016  0.25546  1.0000
  C   C289      1.0  0.74710  0.67876  0.78459  1.0000
  C   C290      1.0  0.74717  0.67108  0.79928  1.0000
  C   C291      1.0  0.74725  0.69267  0.81007  1.0000
  C   C292      1.0  0.74728  0.72205  0.80622  1.0000
  C   C293      1.0  0.74722  0.72870  0.79157  1.0000
  C   C294      1.0  0.74711  0.70805  0.78125  1.0000
  C   C295      1.0  0.74707  0.72179  0.76792  1.0000
  N   N73       1.0  0.74715  0.75164  0.76977  1.0000
  C   C296      1.0  0.74724  0.75535  0.78469  1.0000
  N   N74       1.0  0.74735  0.78025  0.79202  1.0000
  C   C297      1.0  0.74732  0.80513  0.78468  1.0000
  N   N75       1.0  0.74723  0.80882  0.76975  1.0000
  C   C298      1.0  0.74717  0.83866  0.76789  1.0000
  C   C299      1.0  0.74725  0.85243  0.78121  1.0000
  C   C300      1.0  0.74733  0.83180  0.79154  1.0000
  N   N76       1.0  0.74717  0.80879  0.74116  1.0000
  C   C301      1.0  0.74707  0.83864  0.74300  1.0000
  N   N77       1.0  0.74703  0.85333  0.75544  1.0000
  C   C302      1.0  0.74712  0.85238  0.72967  1.0000
  C   C303      1.0  0.74724  0.83172  0.71935  1.0000
  C   C304      1.0  0.74729  0.80507  0.72624  1.0000
  C   C305      1.0  0.74737  0.83850  0.80619  1.0000
  C   C306      1.0  0.74736  0.86788  0.81002  1.0000
  C   C307      1.0  0.74732  0.88945  0.79922  1.0000
  C   C308      1.0  0.74725  0.88173  0.78453  1.0000
  C   C309      1.0  0.74728  0.83837  0.70471  1.0000
  C   C310      1.0  0.74718  0.86774  0.70085  1.0000
  C   C311      1.0  0.74708  0.88933  0.71164  1.0000
  C   C312      1.0  0.74705  0.88166  0.72633  1.0000
  N   N78       1.0  0.74722  0.75161  0.74118  1.0000
  C   C313      1.0  0.74734  0.75530  0.72625  1.0000
  N   N79       1.0  0.74742  0.78018  0.71891  1.0000
  C   C314      1.0  0.74735  0.72864  0.71938  1.0000
  C   C315      1.0  0.74723  0.70801  0.72970  1.0000
  C   C316      1.0  0.74714  0.72177  0.74303  1.0000
  C   C317      1.0  0.74725  0.67871  0.72638  1.0000
  C   C318      1.0  0.74737  0.67102  0.71168  1.0000
  C   C319      1.0  0.74744  0.69260  0.70089  1.0000
  C   C320      1.0  0.74743  0.72198  0.70473  1.0000
  N   N80       1.0  0.74701  0.70711  0.75548  1.0000
  H   H73       1.0  0.74704  0.66443  0.77719  1.0000
  O   O73       1.0  0.74716  0.64646  0.80262  1.0000
  O   O74       1.0  0.74729  0.68600  0.82238  1.0000
  H   H74       1.0  0.74734  0.73686  0.81338  1.0000
  H   H75       1.0  0.74741  0.82371  0.81336  1.0000
  O   O75       1.0  0.74736  0.87458  0.82232  1.0000
  O   O76       1.0  0.74736  0.91407  0.80254  1.0000
  H   H76       1.0  0.74721  0.89604  0.77713  1.0000
  H   H77       1.0  0.74736  0.82356  0.69755  1.0000
  O   O77       1.0  0.74717  0.87440  0.68854  1.0000
  O   O78       1.0  0.74702  0.91394  0.70829  1.0000
  H   H78       1.0  0.74699  0.89600  0.73372  1.0000
  H   H79       1.0  0.74719  0.66439  0.73378  1.0000
  O   O79       1.0  0.74743  0.64640  0.70835  1.0000
  O   O80       1.0  0.74750  0.68592  0.68858  1.0000
  H   H80       1.0  0.74750  0.73678  0.69757  1.0000
  Ni  Ni10      1.0  0.74715  0.78021  0.75546  1.0000
  C   C321      1.0  0.39908  0.52662  0.97632  1.0000
  C   C322      1.0  0.39140  0.52669  0.96163  1.0000
  C   C323      1.0  0.41299  0.52679  0.95084  1.0000
  C   C324      1.0  0.44237  0.52686  0.95469  1.0000
  C   C325      1.0  0.44902  0.52680  0.96934  1.0000
  C   C326      1.0  0.42837  0.52667  0.97966  1.0000
  C   C327      1.0  0.44211  0.52664  0.99299  1.0000
  N   N81       1.0  0.47195  0.52675  0.99114  1.0000
  C   C328      1.0  0.47567  0.52684  0.97622  1.0000
  N   N82       1.0  0.50057  0.52698  0.96889  1.0000
  C   C329      1.0  0.52545  0.52698  0.97623  1.0000
  N   N83       1.0  0.52914  0.52689  0.99116  1.0000
  C   C330      1.0  0.55898  0.52686  0.99302  1.0000
  C   C331      1.0  0.57275  0.52696  0.97969  1.0000
  C   C332      1.0  0.55212  0.52702  0.96936  1.0000
  N   N84       1.0  0.52911  0.52682  0.01975  1.0000
  C   C333      1.0  0.55895  0.52676  0.01791  1.0000
  N   N85       1.0  0.57364  0.52673  0.00546  1.0000
  C   C334      1.0  0.57269  0.52682  0.03124  1.0000
  C   C335      1.0  0.55204  0.52692  0.04155  1.0000
  C   C336      1.0  0.52539  0.52694  0.03467  1.0000
  C   C337      1.0  0.55881  0.52707  0.95472  1.0000
  C   C338      1.0  0.58820  0.52708  0.95089  1.0000
  C   C339      1.0  0.60976  0.52707  0.96169  1.0000
  C   C340      1.0  0.60205  0.52699  0.97638  1.0000
  C   C341      1.0  0.55869  0.52696  0.05620  1.0000
  C   C342      1.0  0.58806  0.52690  0.06006  1.0000
  C   C343      1.0  0.60965  0.52682  0.04927  1.0000
  C   C344      1.0  0.60198  0.52678  0.03458  1.0000
  N   N86       1.0  0.47193  0.52682  0.01973  1.0000
  C   C345      1.0  0.47562  0.52694  0.03466  1.0000
  N   N87       1.0  0.50050  0.52705  0.04200  1.0000
  C   C346      1.0  0.44896  0.52692  0.04153  1.0000
  C   C347      1.0  0.42833  0.52678  0.03120  1.0000
  C   C348      1.0  0.44209  0.52671  0.01788  1.0000
  C   C349      1.0  0.39903  0.52677  0.03453  1.0000
  C   C350      1.0  0.39134  0.52688  0.04922  1.0000
  C   C351      1.0  0.41292  0.52697  0.06002  1.0000
  C   C352      1.0  0.44230  0.52700  0.05618  1.0000
  N   N88       1.0  0.42743  0.52657  0.00543  1.0000
  H   H81       1.0  0.38475  0.52655  0.98372  1.0000
  O   O81       1.0  0.36678  0.52666  0.95829  1.0000
  O   O82       1.0  0.40632  0.52683  0.93853  1.0000
  H   H82       1.0  0.45718  0.52693  0.94753  1.0000
  H   H83       1.0  0.54403  0.52709  0.94755  1.0000
  O   O83       1.0  0.59490  0.52710  0.93858  1.0000
  O   O84       1.0  0.63438  0.52713  0.95837  1.0000
  H   H84       1.0  0.61636  0.52696  0.98378  1.0000
  H   H85       1.0  0.54388  0.52702  0.06336  1.0000
  O   O85       1.0  0.59471  0.52689  0.07237  1.0000
  O   O86       1.0  0.63426  0.52678  0.05261  1.0000
  H   H86       1.0  0.61632  0.52674  0.02718  1.0000
  H   H87       1.0  0.38471  0.52670  0.02713  1.0000
  O   O87       1.0  0.36672  0.52691  0.05256  1.0000
  O   O88       1.0  0.40624  0.52703  0.07233  1.0000
  H   H88       1.0  0.45710  0.52707  0.06334  1.0000
  Ni  Ni11      1.0  0.50053  0.52677  0.00544  1.0000
  C   C353      1.0  0.89907  0.53363  0.53458  1.0000
  C   C354      1.0  0.89139  0.53356  0.54927  1.0000
  C   C355      1.0  0.91298  0.53348  0.56006  1.0000
  C   C356      1.0  0.94236  0.53345  0.55621  1.0000
  C   C357      1.0  0.94901  0.53351  0.54156  1.0000
  C   C358      1.0  0.92836  0.53361  0.53124  1.0000
  C   C359      1.0  0.94211  0.53365  0.51791  1.0000
  N   N89       1.0  0.97195  0.53357  0.51976  1.0000
  C   C360      1.0  0.97566  0.53349  0.53468  1.0000
  N   N90       1.0  0.00010  0.53337  0.54201  1.0000
  C   C361      1.0  0.02544  0.53340  0.53467  1.0000
  N   N91       1.0  0.02913  0.53349  0.51975  1.0000
  C   C362      1.0  0.05897  0.53355  0.51789  1.0000
  C   C363      1.0  0.07274  0.53347  0.53121  1.0000
  C   C364      1.0  0.05211  0.53339  0.54154  1.0000
  N   N92       1.0  0.02910  0.53355  0.49116  1.0000
  C   C365      1.0  0.05895  0.53364  0.49300  1.0000
  N   N93       1.0  0.07364  0.53368  0.50544  1.0000
  C   C366      1.0  0.07269  0.53359  0.47966  1.0000
  C   C367      1.0  0.05204  0.53347  0.46935  1.0000
  C   C368      1.0  0.02539  0.53342  0.47623  1.0000
  C   C369      1.0  0.05880  0.53335  0.55618  1.0000
  C   C370      1.0  0.08819  0.53337  0.56002  1.0000
  C   C371      1.0  0.10975  0.53340  0.54921  1.0000
  C   C372      1.0  0.10204  0.53347  0.53453  1.0000
  C   C373      1.0  0.05868  0.53342  0.45470  1.0000
  C   C374      1.0  0.08806  0.53352  0.45085  1.0000
  C   C375      1.0  0.10965  0.53362  0.46163  1.0000
  C   C376      1.0  0.10198  0.53365  0.47632  1.0000
  N   N94       1.0  0.97193  0.53349  0.49117  1.0000
  C   C377      1.0  0.97562  0.53337  0.47625  1.0000
  N   N95       1.0  0.00010  0.53329  0.46890  1.0000
  C   C378      1.0  0.94896  0.53336  0.46937  1.0000
  C   C379      1.0  0.92832  0.53349  0.47970  1.0000
  C   C380      1.0  0.94209  0.53358  0.49303  1.0000
  C   C381      1.0  0.89903  0.53347  0.47637  1.0000
  C   C382      1.0  0.89134  0.53334  0.46168  1.0000
  C   C383      1.0  0.91292  0.53327  0.45088  1.0000
  C   C384      1.0  0.94230  0.53328  0.45473  1.0000
  N   N96       1.0  0.92742  0.53371  0.50547  1.0000
  H   H89       1.0  0.88474  0.53369  0.52718  1.0000
  O   O89       1.0  0.86677  0.53358  0.55261  1.0000
  O   O90       1.0  0.90631  0.53344  0.57237  1.0000
  H   H90       1.0  0.95717  0.53339  0.56337  1.0000
  H   H91       1.0  0.04402  0.53332  0.56335  1.0000
  O   O91       1.0  0.09489  0.53336  0.57232  1.0000
  O   O92       1.0  0.13438  0.53336  0.55254  1.0000
  H   H92       1.0  0.11635  0.53350  0.52712  1.0000
  H   H93       1.0  0.04388  0.53335  0.44754  1.0000
  O   O93       1.0  0.09471  0.53353  0.43854  1.0000
  O   O94       1.0  0.13426  0.53368  0.45829  1.0000
  H   H94       1.0  0.11631  0.53371  0.48372  1.0000
  H   H95       1.0  0.88470  0.53353  0.48377  1.0000
  O   O95       1.0  0.86672  0.53329  0.45834  1.0000
  O   O96       1.0  0.90624  0.53321  0.43858  1.0000
  H   H96       1.0  0.95710  0.53321  0.44756  1.0000
  Ni  Ni12      1.0  0.00010  0.53357  0.50546  1.0000
  C   C385      1.0  0.22340  0.02965  0.40486  1.0000
  C   C386      1.0  0.20209  0.02965  0.39417  1.0000
  C   C387      1.0  0.17291  0.02918  0.39804  1.0000
  C   C388      1.0  0.16496  0.02870  0.41261  1.0000
  C   C389      1.0  0.18632  0.02870  0.42334  1.0000
  C   C390      1.0  0.21550  0.02917  0.41944  1.0000
  O   O97       1.0  0.25203  0.03011  0.40107  1.0000
  O   O98       1.0  0.20983  0.03011  0.37988  1.0000
  H   H97       1.0  0.15717  0.02918  0.39011  1.0000
  O   O99       1.0  0.13627  0.02824  0.41636  1.0000
  O   O100      1.0  0.17868  0.02824  0.43768  1.0000
  H   H98       1.0  0.23127  0.02917  0.42735  1.0000
  Cu  Cu1       1.0  0.13568  0.02768  0.43784  1.0000
  C   C391      1.0  0.25104  0.98183  0.64421  1.0000
  C   C392      1.0  0.25104  0.00315  0.65489  1.0000
  C   C393      1.0  0.25152  0.99533  0.66947  1.0000
  C   C394      1.0  0.25200  0.96617  0.67340  1.0000
  C   C395      1.0  0.25200  0.94476  0.66270  1.0000
  C   C396      1.0  0.25152  0.95266  0.64812  1.0000
  O   O101      1.0  0.25056  0.98950  0.62990  1.0000
  O   O102      1.0  0.25057  0.03175  0.65106  1.0000
  H   H99       1.0  0.25152  0.01115  0.67737  1.0000
  O   O103      1.0  0.25248  0.95859  0.68774  1.0000
  O   O104      1.0  0.25247  0.91607  0.66648  1.0000
  H   H100      1.0  0.25151  0.93687  0.64021  1.0000
  Cu  Cu2       1.0  0.25304  0.91563  0.68797  1.0000
  C   C397      1.0  0.29894  0.03077  0.89419  1.0000
  C   C398      1.0  0.27762  0.03077  0.90487  1.0000
  C   C399      1.0  0.28542  0.03126  0.91945  1.0000
  C   C400      1.0  0.31458  0.03173  0.92339  1.0000
  C   C401      1.0  0.33600  0.03173  0.91268  1.0000
  C   C402      1.0  0.32811  0.03125  0.89810  1.0000
  O   O105      1.0  0.29128  0.03030  0.87988  1.0000
  O   O106      1.0  0.24902  0.03030  0.90103  1.0000
  H   H101      1.0  0.26960  0.03126  0.92734  1.0000
  O   O107      1.0  0.32216  0.03221  0.93772  1.0000
  O   O108      1.0  0.36469  0.03220  0.91647  1.0000
  H   H102      1.0  0.34390  0.03125  0.89020  1.0000
  Cu  Cu3       1.0  0.36511  0.03277  0.93796  1.0000
  C   C403      1.0  0.25003  0.07858  0.14420  1.0000
  C   C404      1.0  0.25003  0.05726  0.15489  1.0000
  C   C405      1.0  0.24955  0.06507  0.16947  1.0000
  C   C406      1.0  0.24908  0.09423  0.17340  1.0000
  C   C407      1.0  0.24908  0.11564  0.16269  1.0000
  C   C408      1.0  0.24956  0.10775  0.14811  1.0000
  O   O109      1.0  0.25050  0.07091  0.12990  1.0000
  O   O110      1.0  0.25050  0.02866  0.15105  1.0000
  H   H103      1.0  0.24955  0.04925  0.17736  1.0000
  O   O111      1.0  0.24861  0.10181  0.18774  1.0000
  O   O112      1.0  0.24861  0.14434  0.16647  1.0000
  H   H104      1.0  0.24956  0.12354  0.14020  1.0000
  Cu  Cu4       1.0  0.24805  0.14477  0.18797  1.0000
  C   C409      1.0  0.22302  0.02968  0.60626  1.0000
  C   C410      1.0  0.20165  0.02968  0.61693  1.0000
  C   C411      1.0  0.17250  0.02915  0.61302  1.0000
  C   C412      1.0  0.16463  0.02863  0.59844  1.0000
  C   C413      1.0  0.18604  0.02863  0.58773  1.0000
  C   C414      1.0  0.21519  0.02916  0.59168  1.0000
  O   O113      1.0  0.25163  0.03019  0.61009  1.0000
  O   O114      1.0  0.20933  0.03019  0.63122  1.0000
  H   H105      1.0  0.15672  0.02915  0.62093  1.0000
  O   O115      1.0  0.13595  0.02812  0.59466  1.0000
  O   O116      1.0  0.17847  0.02813  0.57339  1.0000
  H   H106      1.0  0.23101  0.02916  0.58378  1.0000
  Cu  Cu5       1.0  0.13548  0.02751  0.57318  1.0000
  C   C415      1.0  0.25110  0.00276  0.85624  1.0000
  C   C416      1.0  0.25110  0.98139  0.86690  1.0000
  C   C417      1.0  0.25162  0.95223  0.86300  1.0000
  C   C418      1.0  0.25214  0.94437  0.84842  1.0000
  C   C419      1.0  0.25214  0.96578  0.83771  1.0000
  C   C420      1.0  0.25162  0.99493  0.84166  1.0000
  O   O117      1.0  0.25059  0.03137  0.86007  1.0000
  O   O118      1.0  0.25060  0.98907  0.88120  1.0000
  H   H107      1.0  0.25162  0.93645  0.87091  1.0000
  O   O119      1.0  0.25265  0.91569  0.84463  1.0000
  O   O120      1.0  0.25264  0.95821  0.82337  1.0000
  H   H108      1.0  0.25162  0.01075  0.83376  1.0000
  Cu  Cu6       1.0  0.25325  0.91522  0.82316  1.0000
  C   C421      1.0  0.27804  0.03074  0.10625  1.0000
  C   C422      1.0  0.29941  0.03074  0.11692  1.0000
  C   C423      1.0  0.32857  0.03127  0.11301  1.0000
  C   C424      1.0  0.33643  0.03179  0.09843  1.0000
  C   C425      1.0  0.31502  0.03179  0.08772  1.0000
  C   C426      1.0  0.28587  0.03126  0.09167  1.0000
  O   O121      1.0  0.24943  0.03022  0.11008  1.0000
  O   O122      1.0  0.29174  0.03022  0.13121  1.0000
  H   H109      1.0  0.34435  0.03127  0.12092  1.0000
  O   O123      1.0  0.36511  0.03231  0.09464  1.0000
  O   O124      1.0  0.32259  0.03231  0.07338  1.0000
  H   H110      1.0  0.27005  0.03126  0.08377  1.0000
  Cu  Cu7       1.0  0.36558  0.03293  0.07317  1.0000
  C   C427      1.0  0.24999  0.07896  0.36689  1.0000
  C   C428      1.0  0.24999  0.05758  0.35623  1.0000
  C   C429      1.0  0.24947  0.06531  0.34164  1.0000
  C   C430      1.0  0.24895  0.09445  0.33767  1.0000
  C   C431      1.0  0.24895  0.11592  0.34835  1.0000
  C   C432      1.0  0.24946  0.10811  0.36294  1.0000
  O   O125      1.0  0.25049  0.07137  0.38120  1.0000
  O   O126      1.0  0.25050  0.02900  0.36010  1.0000
  H   H111      1.0  0.24948  0.04945  0.33377  1.0000
  O   O127      1.0  0.24845  0.10195  0.32332  1.0000
  O   O128      1.0  0.24844  0.14459  0.34453  1.0000
  H   H112      1.0  0.24946  0.12394  0.37083  1.0000
  Cu  Cu8       1.0  0.24783  0.14490  0.32303  1.0000
  C   C433      1.0  0.77780  0.02947  0.60613  1.0000
  C   C434      1.0  0.79914  0.02947  0.61681  1.0000
  C   C435      1.0  0.82831  0.02901  0.61292  1.0000
  C   C436      1.0  0.83622  0.02855  0.59835  1.0000
  C   C437      1.0  0.81483  0.02855  0.58763  1.0000
  C   C438      1.0  0.78567  0.02901  0.59155  1.0000
  O   O129      1.0  0.74918  0.02991  0.60995  1.0000
  O   O130      1.0  0.79143  0.02991  0.63111  1.0000
  H   H113      1.0  0.84407  0.02901  0.62085  1.0000
  O   O131      1.0  0.86490  0.02811  0.59458  1.0000
  O   O132      1.0  0.82244  0.02811  0.57329  1.0000
  H   H114      1.0  0.76987  0.02901  0.58365  1.0000
  Cu  Cu9       1.0  0.86543  0.02757  0.57310  1.0000
  C   C439      1.0  0.75125  0.07874  0.36679  1.0000
  C   C440      1.0  0.75125  0.05738  0.35612  1.0000
  C   C441      1.0  0.75171  0.06514  0.34153  1.0000
  C   C442      1.0  0.75217  0.09429  0.33758  1.0000
  C   C443      1.0  0.75217  0.11574  0.34827  1.0000
  C   C444      1.0  0.75171  0.10789  0.36285  1.0000
  O   O133      1.0  0.75081  0.07112  0.38110  1.0000
  O   O134      1.0  0.75080  0.02879  0.35998  1.0000
  H   H115      1.0  0.75171  0.04930  0.33365  1.0000
  O   O135      1.0  0.75262  0.10183  0.32323  1.0000
  O   O136      1.0  0.75262  0.14442  0.34446  1.0000
  H   H116      1.0  0.75172  0.12371  0.37075  1.0000
  Cu  Cu10      1.0  0.75316  0.14478  0.32297  1.0000
  C   C445      1.0  0.70194  0.03091  0.11678  1.0000
  C   C446      1.0  0.72330  0.03090  0.10611  1.0000
  C   C447      1.0  0.71553  0.03137  0.09152  1.0000
  C   C448      1.0  0.68639  0.03184  0.08757  1.0000
  C   C449      1.0  0.66494  0.03184  0.09826  1.0000
  C   C450      1.0  0.67278  0.03138  0.11284  1.0000
  O   O137      1.0  0.70956  0.03045  0.13109  1.0000
  O   O138      1.0  0.75188  0.03044  0.10997  1.0000
  H   H117      1.0  0.73138  0.03137  0.08364  1.0000
  O   O139      1.0  0.67885  0.03230  0.07322  1.0000
  O   O140      1.0  0.63626  0.03230  0.09445  1.0000
  H   H118      1.0  0.65697  0.03138  0.12074  1.0000
  Cu  Cu11      1.0  0.63590  0.03285  0.07295  1.0000
  C   C451      1.0  0.74979  0.98167  0.86677  1.0000
  C   C452      1.0  0.74979  0.00303  0.85611  1.0000
  C   C453      1.0  0.74933  0.99526  0.84152  1.0000
  C   C454      1.0  0.74887  0.96612  0.83756  1.0000
  C   C455      1.0  0.74887  0.94467  0.84825  1.0000
  C   C456      1.0  0.74933  0.95252  0.86284  1.0000
  O   O141      1.0  0.75024  0.98929  0.88108  1.0000
  O   O142      1.0  0.75024  0.03162  0.85996  1.0000
  H   H119      1.0  0.74934  0.01111  0.83364  1.0000
  O   O143      1.0  0.74843  0.95858  0.82322  1.0000
  O   O144      1.0  0.74842  0.91599  0.84445  1.0000
  H   H120      1.0  0.74933  0.93670  0.87073  1.0000
  Cu  Cu12      1.0  0.74788  0.91563  0.82295  1.0000
  C   C457      1.0  0.77787  0.02939  0.40475  1.0000
  C   C458      1.0  0.79921  0.02939  0.39407  1.0000
  C   C459      1.0  0.82838  0.02890  0.39796  1.0000
  C   C460      1.0  0.83629  0.02840  0.41253  1.0000
  C   C461      1.0  0.81491  0.02840  0.42326  1.0000
  C   C462      1.0  0.78574  0.02890  0.41933  1.0000
  O   O145      1.0  0.74925  0.02988  0.40094  1.0000
  O   O146      1.0  0.79149  0.02988  0.37978  1.0000
  H   H121      1.0  0.84413  0.02890  0.39003  1.0000
  O   O147      1.0  0.86497  0.02792  0.41630  1.0000
  O   O148      1.0  0.82251  0.02792  0.43760  1.0000
  H   H122      1.0  0.76995  0.02890  0.42724  1.0000
  Cu  Cu13      1.0  0.86551  0.02734  0.43778  1.0000
  C   C463      1.0  0.75129  0.05752  0.15475  1.0000
  C   C464      1.0  0.75129  0.07885  0.14406  1.0000
  C   C465      1.0  0.75179  0.10802  0.14795  1.0000
  C   C466      1.0  0.75229  0.11594  0.16252  1.0000
  C   C467      1.0  0.75229  0.09456  0.17325  1.0000
  C   C468      1.0  0.75179  0.06539  0.16932  1.0000
  O   O149      1.0  0.75080  0.02890  0.15094  1.0000
  O   O150      1.0  0.75080  0.07113  0.12977  1.0000
  H   H123      1.0  0.75178  0.12378  0.14002  1.0000
  O   O151      1.0  0.75277  0.14463  0.16628  1.0000
  O   O152      1.0  0.75278  0.10218  0.18758  1.0000
  H   H124      1.0  0.75179  0.04961  0.17723  1.0000
  Cu  Cu14      1.0  0.75336  0.14517  0.18776  1.0000
  C   C469      1.0  0.72318  0.03103  0.90474  1.0000
  C   C470      1.0  0.70184  0.03102  0.89406  1.0000
  C   C471      1.0  0.67267  0.03152  0.89795  1.0000
  C   C472      1.0  0.66477  0.03202  0.91252  1.0000
  C   C473      1.0  0.68615  0.03203  0.92324  1.0000
  C   C474      1.0  0.71532  0.03153  0.91932  1.0000
  O   O153      1.0  0.75180  0.03054  0.90092  1.0000
  O   O154      1.0  0.70955  0.03053  0.87977  1.0000
  H   H125      1.0  0.65691  0.03152  0.89002  1.0000
  O   O155      1.0  0.63608  0.03251  0.91629  1.0000
  O   O156      1.0  0.67854  0.03252  0.93758  1.0000
  H   H126      1.0  0.73111  0.03153  0.92722  1.0000
  Cu  Cu15      1.0  0.63555  0.03310  0.93777  1.0000
  C   C475      1.0  0.74974  0.98156  0.64410  1.0000
  C   C476      1.0  0.74973  0.00291  0.65477  1.0000
  C   C477      1.0  0.74923  0.99513  0.66935  1.0000
  C   C478      1.0  0.74874  0.96598  0.67330  1.0000
  C   C479      1.0  0.74874  0.94454  0.66261  1.0000
  C   C480      1.0  0.74924  0.95240  0.64802  1.0000
  O   O157      1.0  0.75023  0.98919  0.62979  1.0000
  O   O158      1.0  0.75022  0.03150  0.65092  1.0000
  H   H127      1.0  0.74923  0.01097  0.67724  1.0000
  O   O159      1.0  0.74825  0.95844  0.68764  1.0000
  O   O160      1.0  0.74825  0.91586  0.66641  1.0000
  H   H128      1.0  0.74924  0.93659  0.64013  1.0000
  Cu  Cu16      1.0  0.74766  0.91549  0.68790  1.0000
  C   C481      1.0  0.72341  0.52969  0.90486  1.0000
  C   C482      1.0  0.70210  0.52969  0.89417  1.0000
  C   C483      1.0  0.67292  0.52921  0.89804  1.0000
  C   C484      1.0  0.66498  0.52872  0.91261  1.0000
  C   C485      1.0  0.68633  0.52871  0.92334  1.0000
  C   C486      1.0  0.71551  0.52920  0.91944  1.0000
  O   O161      1.0  0.75204  0.53016  0.90107  1.0000
  O   O162      1.0  0.70985  0.53017  0.87988  1.0000
  H   H129      1.0  0.65718  0.52921  0.89011  1.0000
  O   O163      1.0  0.63628  0.52824  0.91636  1.0000
  O   O164      1.0  0.67869  0.52824  0.93768  1.0000
  H   H130      1.0  0.73128  0.52920  0.92735  1.0000
  Cu  Cu17      1.0  0.63570  0.52767  0.93783  1.0000
  C   C487      1.0  0.75106  0.48174  0.14419  1.0000
  C   C488      1.0  0.75106  0.50307  0.15488  1.0000
  C   C489      1.0  0.75154  0.49525  0.16946  1.0000
  C   C490      1.0  0.75202  0.46610  0.17339  1.0000
  C   C491      1.0  0.75201  0.44468  0.16269  1.0000
  C   C492      1.0  0.75153  0.45257  0.14811  1.0000
  O   O165      1.0  0.75059  0.48940  0.12989  1.0000
  O   O166      1.0  0.75060  0.53166  0.15104  1.0000
  H   H131      1.0  0.75154  0.51108  0.17735  1.0000
  O   O167      1.0  0.75248  0.45852  0.18773  1.0000
  O   O168      1.0  0.75248  0.41599  0.16647  1.0000
  H   H132      1.0  0.75153  0.43678  0.14020  1.0000
  Cu  Cu18      1.0  0.75304  0.41557  0.18797  1.0000
  C   C493      1.0  0.79899  0.53074  0.39418  1.0000
  C   C494      1.0  0.77766  0.53074  0.40486  1.0000
  C   C495      1.0  0.78547  0.53122  0.41944  1.0000
  C   C496      1.0  0.81462  0.53169  0.42338  1.0000
  C   C497      1.0  0.83604  0.53169  0.41267  1.0000
  C   C498      1.0  0.82815  0.53121  0.39809  1.0000
  O   O169      1.0  0.79133  0.53028  0.37987  1.0000
  O   O170      1.0  0.74906  0.53028  0.40102  1.0000
  H   H133      1.0  0.76964  0.53122  0.42733  1.0000
  O   O171      1.0  0.82220  0.53215  0.43772  1.0000
  O   O172      1.0  0.86473  0.53215  0.41646  1.0000
  H   H134      1.0  0.84395  0.53121  0.39019  1.0000
  Cu  Cu19      1.0  0.86515  0.53271  0.43796  1.0000
  C   C499      1.0  0.75000  0.57864  0.64420  1.0000
  C   C500      1.0  0.75000  0.55731  0.65488  1.0000
  C   C501      1.0  0.74952  0.56513  0.66946  1.0000
  C   C502      1.0  0.74904  0.59429  0.67339  1.0000
  C   C503      1.0  0.74905  0.61570  0.66269  1.0000
  C   C504      1.0  0.74953  0.60781  0.64811  1.0000
  O   O173      1.0  0.75048  0.57097  0.62989  1.0000
  O   O174      1.0  0.75047  0.52872  0.65104  1.0000
  H   H135      1.0  0.74952  0.54931  0.67735  1.0000
  O   O175      1.0  0.74857  0.60187  0.68773  1.0000
  O   O176      1.0  0.74858  0.64439  0.66647  1.0000
  H   H136      1.0  0.74953  0.62360  0.64020  1.0000
  Cu  Cu20      1.0  0.74801  0.64482  0.68797  1.0000
  C   C505      1.0  0.72305  0.52959  0.10624  1.0000
  C   C506      1.0  0.70168  0.52959  0.11691  1.0000
  C   C507      1.0  0.67252  0.52907  0.11300  1.0000
  C   C508      1.0  0.66465  0.52855  0.09842  1.0000
  C   C509      1.0  0.68606  0.52855  0.08771  1.0000
  C   C510      1.0  0.71522  0.52907  0.09166  1.0000
  O   O177      1.0  0.75166  0.53010  0.11007  1.0000
  O   O178      1.0  0.70936  0.53010  0.13120  1.0000
  H   H137      1.0  0.65674  0.52907  0.12092  1.0000
  O   O179      1.0  0.63598  0.52804  0.09464  1.0000
  O   O180      1.0  0.67849  0.52804  0.07337  1.0000
  H   H138      1.0  0.73103  0.52907  0.08376  1.0000
  Cu  Cu21      1.0  0.63550  0.52743  0.07316  1.0000
  C   C511      1.0  0.75113  0.50273  0.35623  1.0000
  C   C512      1.0  0.75113  0.48137  0.36690  1.0000
  C   C513      1.0  0.75165  0.45221  0.36299  1.0000
  C   C514      1.0  0.75216  0.44434  0.34841  1.0000
  C   C515      1.0  0.75216  0.46575  0.33770  1.0000
  C   C516      1.0  0.75164  0.49490  0.34165  1.0000
  O   O181      1.0  0.75062  0.53134  0.36006  1.0000
  O   O182      1.0  0.75063  0.48905  0.38119  1.0000
  H   H139      1.0  0.75165  0.43643  0.37091  1.0000
  O   O183      1.0  0.75266  0.41566  0.34463  1.0000
  O   O184      1.0  0.75266  0.45817  0.32336  1.0000
  H   H140      1.0  0.75164  0.51071  0.33375  1.0000
  Cu  Cu22      1.0  0.75326  0.41518  0.32315  1.0000
  C   C517      1.0  0.77801  0.53078  0.60625  1.0000
  C   C518      1.0  0.79937  0.53078  0.61691  1.0000
  C   C519      1.0  0.82853  0.53130  0.61301  1.0000
  C   C520      1.0  0.83640  0.53181  0.59843  1.0000
  C   C521      1.0  0.81499  0.53181  0.58772  1.0000
  C   C522      1.0  0.78583  0.53129  0.59166  1.0000
  O   O185      1.0  0.74940  0.53027  0.61008  1.0000
  O   O186      1.0  0.79170  0.53028  0.63121  1.0000
  H   H141      1.0  0.84431  0.53130  0.62092  1.0000
  O   O187      1.0  0.86507  0.53232  0.59464  1.0000
  O   O188      1.0  0.82255  0.53231  0.57337  1.0000
  H   H142      1.0  0.77002  0.53129  0.58377  1.0000
  Cu  Cu23      1.0  0.86554  0.53292  0.57316  1.0000
  C   C523      1.0  0.74999  0.57902  0.86689  1.0000
  C   C524      1.0  0.75000  0.55764  0.85623  1.0000
  C   C525      1.0  0.74948  0.56537  0.84164  1.0000
  C   C526      1.0  0.74895  0.59451  0.83767  1.0000
  C   C527      1.0  0.74895  0.61598  0.84835  1.0000
  C   C528      1.0  0.74947  0.60817  0.86294  1.0000
  O   O189      1.0  0.75050  0.57144  0.88120  1.0000
  O   O190      1.0  0.75051  0.52906  0.86011  1.0000
  H   H143      1.0  0.74948  0.54951  0.83377  1.0000
  O   O191      1.0  0.74844  0.60201  0.82332  1.0000
  O   O192      1.0  0.74843  0.64465  0.84453  1.0000
  H   H144      1.0  0.74946  0.62400  0.87082  1.0000
  Cu  Cu24      1.0  0.74782  0.64496  0.82303  1.0000
  C   C529      1.0  0.27782  0.52941  0.10613  1.0000
  C   C530      1.0  0.29916  0.52941  0.11681  1.0000
  C   C531      1.0  0.32833  0.52895  0.11292  1.0000
  C   C532      1.0  0.33624  0.52849  0.09835  1.0000
  C   C533      1.0  0.31485  0.52849  0.08763  1.0000
  C   C534      1.0  0.28568  0.52895  0.09155  1.0000
  O   O193      1.0  0.24920  0.52986  0.10995  1.0000
  O   O194      1.0  0.29145  0.52986  0.13110  1.0000
  H   H145      1.0  0.34409  0.52895  0.12084  1.0000
  O   O195      1.0  0.36492  0.52804  0.09458  1.0000
  O   O196      1.0  0.32246  0.52804  0.07328  1.0000
  H   H146      1.0  0.26989  0.52895  0.08365  1.0000
  Cu  Cu25      1.0  0.36545  0.52750  0.07310  1.0000
  C   C535      1.0  0.25128  0.57877  0.86677  1.0000
  C   C536      1.0  0.25127  0.55741  0.85610  1.0000
  C   C537      1.0  0.25173  0.56518  0.84152  1.0000
  C   C538      1.0  0.25219  0.59433  0.83756  1.0000
  C   C539      1.0  0.25220  0.61577  0.84825  1.0000
  C   C540      1.0  0.25174  0.60792  0.86284  1.0000
  O   O197      1.0  0.25083  0.57115  0.88108  1.0000
  O   O198      1.0  0.25082  0.52882  0.85996  1.0000
  H   H147      1.0  0.25173  0.54934  0.83364  1.0000
  O   O199      1.0  0.25264  0.60187  0.82322  1.0000
  O   O200      1.0  0.25265  0.64445  0.84445  1.0000
  H   H148      1.0  0.25174  0.62374  0.87073  1.0000
  Cu  Cu26      1.0  0.25318  0.64482  0.82295  1.0000
  C   C541      1.0  0.20198  0.53097  0.61676  1.0000
  C   C542      1.0  0.22334  0.53097  0.60609  1.0000
  C   C543      1.0  0.21557  0.53142  0.59151  1.0000
  C   C544      1.0  0.18642  0.53187  0.58755  1.0000
  C   C545      1.0  0.16498  0.53187  0.59825  1.0000
  C   C546      1.0  0.17283  0.53143  0.61283  1.0000
  O   O201      1.0  0.20960  0.53053  0.63108  1.0000
  O   O202      1.0  0.25193  0.53052  0.60995  1.0000
  H   H149      1.0  0.23141  0.53141  0.58363  1.0000
  O   O203      1.0  0.17889  0.53231  0.57321  1.0000
  O   O204      1.0  0.13630  0.53232  0.59444  1.0000
  H   H150      1.0  0.15701  0.53143  0.62073  1.0000
  Cu  Cu27      1.0  0.13593  0.53284  0.57294  1.0000
  C   C547      1.0  0.24978  0.48163  0.36677  1.0000
  C   C548      1.0  0.24978  0.50299  0.35610  1.0000
  C   C549      1.0  0.24933  0.49522  0.34152  1.0000
  C   C550      1.0  0.24887  0.46607  0.33756  1.0000
  C   C551      1.0  0.24887  0.44462  0.34825  1.0000
  C   C552      1.0  0.24932  0.45247  0.36284  1.0000
  O   O205      1.0  0.25022  0.48925  0.38108  1.0000
  O   O206      1.0  0.25023  0.53157  0.35996  1.0000
  H   H151      1.0  0.24934  0.51106  0.33364  1.0000
  O   O207      1.0  0.24843  0.45853  0.32322  1.0000
  O   O208      1.0  0.24842  0.41594  0.34445  1.0000
  H   H152      1.0  0.24932  0.43666  0.37074  1.0000
  Cu  Cu28      1.0  0.24789  0.41558  0.32295  1.0000
  C   C553      1.0  0.27789  0.52941  0.90473  1.0000
  C   C554      1.0  0.29923  0.52941  0.89405  1.0000
  C   C555      1.0  0.32840  0.52891  0.89794  1.0000
  C   C556      1.0  0.33630  0.52841  0.91251  1.0000
  C   C557      1.0  0.31492  0.52840  0.92323  1.0000
  C   C558      1.0  0.28576  0.52890  0.91931  1.0000
  O   O209      1.0  0.24927  0.52990  0.90092  1.0000
  O   O210      1.0  0.29151  0.52991  0.87976  1.0000
  H   H153      1.0  0.34415  0.52891  0.89001  1.0000
  O   O211      1.0  0.36499  0.52791  0.91628  1.0000
  O   O212      1.0  0.32253  0.52791  0.93758  1.0000
  H   H154      1.0  0.26996  0.52890  0.92722  1.0000
  Cu  Cu29      1.0  0.36552  0.52732  0.93776  1.0000
  C   C559      1.0  0.25133  0.55760  0.65473  1.0000
  C   C560      1.0  0.25133  0.57894  0.64405  1.0000
  C   C561      1.0  0.25182  0.60811  0.64793  1.0000
  C   C562      1.0  0.25232  0.61602  0.66250  1.0000
  C   C563      1.0  0.25232  0.59464  0.67323  1.0000
  C   C564      1.0  0.25183  0.56547  0.66931  1.0000
  O   O213      1.0  0.25084  0.52898  0.65092  1.0000
  O   O214      1.0  0.25084  0.57122  0.62975  1.0000
  H   H155      1.0  0.25182  0.62386  0.64001  1.0000
  O   O215      1.0  0.25280  0.64470  0.66627  1.0000
  O   O216      1.0  0.25281  0.60225  0.68757  1.0000
  H   H156      1.0  0.25183  0.54968  0.67721  1.0000
  Cu  Cu30      1.0  0.25339  0.64524  0.68775  1.0000
  C   C565      1.0  0.22316  0.53098  0.40474  1.0000
  C   C566      1.0  0.20182  0.53098  0.39406  1.0000
  C   C567      1.0  0.17265  0.53147  0.39794  1.0000
  C   C568      1.0  0.16474  0.53197  0.41252  1.0000
  C   C569      1.0  0.18612  0.53197  0.42324  1.0000
  C   C570      1.0  0.21529  0.53147  0.41931  1.0000
  O   O217      1.0  0.25178  0.53049  0.40093  1.0000
  O   O218      1.0  0.20954  0.53049  0.37976  1.0000
  H   H157      1.0  0.15689  0.53147  0.39002  1.0000
  O   O219      1.0  0.13606  0.53245  0.41628  1.0000
  O   O220      1.0  0.17851  0.53246  0.43758  1.0000
  H   H158      1.0  0.23108  0.53148  0.42722  1.0000
  Cu  Cu31      1.0  0.13552  0.53304  0.43776  1.0000
  C   C571      1.0  0.24976  0.48151  0.14410  1.0000
  C   C572      1.0  0.24975  0.50286  0.15477  1.0000
  C   C573      1.0  0.24926  0.49508  0.16935  1.0000
  C   C574      1.0  0.24876  0.46593  0.17330  1.0000
  C   C575      1.0  0.24876  0.44449  0.16261  1.0000
  C   C576      1.0  0.24926  0.45235  0.14803  1.0000
  O   O221      1.0  0.25025  0.48914  0.12979  1.0000
  O   O222      1.0  0.25024  0.53145  0.15092  1.0000
  H   H159      1.0  0.24925  0.51092  0.17724  1.0000
  O   O223      1.0  0.24827  0.45839  0.18765  1.0000
  O   O224      1.0  0.24828  0.41581  0.16641  1.0000
  H   H160      1.0  0.24926  0.43654  0.14013  1.0000
  Cu  Cu32      1.0  0.24769  0.41543  0.18791  1.0000
  C   C577      1.0  0.20214  0.00268  0.13019  1.0000
  C   C578      1.0  0.22347  0.98131  0.13019  1.0000
  C   C579      1.0  0.21566  0.95215  0.12994  1.0000
  C   C580      1.0  0.18650  0.94429  0.12970  1.0000
  C   C581      1.0  0.16508  0.96570  0.12970  1.0000
  C   C582      1.0  0.17298  0.99485  0.12995  1.0000
  O   O225      1.0  0.20981  0.03129  0.13043  1.0000
  O   O226      1.0  0.25207  0.98898  0.13043  1.0000
  H   H161      1.0  0.23148  0.93637  0.12994  1.0000
  O   O227      1.0  0.17892  0.91561  0.12946  1.0000
  O   O228      1.0  0.13639  0.95813  0.12946  1.0000
  H   H162      1.0  0.15718  0.01067  0.12995  1.0000
  Cu  Cu33      1.0  0.13597  0.91514  0.12917  1.0000
  C   C583      1.0  0.29935  0.00302  0.38018  1.0000
  C   C584      1.0  0.27797  0.98170  0.38018  1.0000
  C   C585      1.0  0.28571  0.95252  0.37992  1.0000
  C   C586      1.0  0.31484  0.94458  0.37966  1.0000
  C   C587      1.0  0.33631  0.96594  0.37966  1.0000
  C   C588      1.0  0.32849  0.99512  0.37992  1.0000
  O   O229      1.0  0.29176  0.03164  0.38044  1.0000
  O   O230      1.0  0.24939  0.98944  0.38044  1.0000
  H   H163      1.0  0.26985  0.93678  0.37993  1.0000
  O   O231      1.0  0.32235  0.91589  0.37941  1.0000
  O   O232      1.0  0.36498  0.95831  0.37940  1.0000
  H   H164      1.0  0.34433  0.01090  0.37992  1.0000
  Cu  Cu34      1.0  0.36530  0.91531  0.37910  1.0000
  C   C589      1.0  0.29893  0.05773  0.63020  1.0000
  C   C590      1.0  0.27761  0.07910  0.63020  1.0000
  C   C591      1.0  0.28542  0.10826  0.62996  1.0000
  C   C592      1.0  0.31458  0.11612  0.62971  1.0000
  C   C593      1.0  0.33599  0.09470  0.62971  1.0000
  C   C594      1.0  0.32810  0.06555  0.62996  1.0000
  O   O233      1.0  0.29126  0.02912  0.63044  1.0000
  O   O234      1.0  0.24901  0.07143  0.63044  1.0000
  H   H165      1.0  0.26960  0.12404  0.62996  1.0000
  O   O235      1.0  0.32216  0.14479  0.62947  1.0000
  O   O236      1.0  0.36468  0.10227  0.62947  1.0000
  H   H166      1.0  0.34389  0.04973  0.62996  1.0000
  Cu  Cu35      1.0  0.36511  0.14526  0.62919  1.0000
  C   C595      1.0  0.22306  0.07866  0.88016  1.0000
  C   C596      1.0  0.20169  0.05733  0.88016  1.0000
  C   C597      1.0  0.17253  0.06514  0.87989  1.0000
  C   C598      1.0  0.16467  0.09430  0.87963  1.0000
  C   C599      1.0  0.18608  0.11572  0.87963  1.0000
  C   C600      1.0  0.21524  0.10782  0.87990  1.0000
  O   O237      1.0  0.25167  0.07099  0.88042  1.0000
  O   O238      1.0  0.20936  0.02873  0.88042  1.0000
  H   H167      1.0  0.15675  0.04932  0.87989  1.0000
  O   O239      1.0  0.13600  0.10188  0.87937  1.0000
  O   O240      1.0  0.17852  0.14441  0.87937  1.0000
  H   H168      1.0  0.23105  0.12361  0.87990  1.0000
  Cu  Cu36      1.0  0.13553  0.14483  0.87906  1.0000
  C   C601      1.0  0.79909  0.05759  0.88008  1.0000
  C   C602      1.0  0.77774  0.07893  0.88008  1.0000
  C   C603      1.0  0.78551  0.10810  0.87986  1.0000
  C   C604      1.0  0.81465  0.11601  0.87963  1.0000
  C   C605      1.0  0.83610  0.09463  0.87963  1.0000
  C   C606      1.0  0.82825  0.06546  0.87986  1.0000
  O   O241      1.0  0.79147  0.02897  0.88030  1.0000
  O   O242      1.0  0.74915  0.07121  0.88031  1.0000
  H   H169      1.0  0.76966  0.12386  0.87986  1.0000
  O   O243      1.0  0.82219  0.14470  0.87941  1.0000
  O   O244      1.0  0.86478  0.10224  0.87941  1.0000
  H   H170      1.0  0.84407  0.04967  0.87986  1.0000
  Cu  Cu37      1.0  0.86514  0.14523  0.87914  1.0000
  C   C607      1.0  0.70187  0.05749  0.63007  1.0000
  C   C608      1.0  0.72322  0.07883  0.63007  1.0000
  C   C609      1.0  0.71544  0.10800  0.62983  1.0000
  C   C610      1.0  0.68629  0.11590  0.62958  1.0000
  C   C611      1.0  0.66485  0.09451  0.62958  1.0000
  C   C612      1.0  0.67271  0.06534  0.62983  1.0000
  O   O245      1.0  0.70950  0.02887  0.63031  1.0000
  O   O246      1.0  0.75181  0.07113  0.63031  1.0000
  H   H171      1.0  0.73127  0.12376  0.62983  1.0000
  O   O247      1.0  0.67874  0.14458  0.62935  1.0000
  O   O248      1.0  0.63617  0.10210  0.62935  1.0000
  H   H172      1.0  0.65690  0.04954  0.62983  1.0000
  Cu  Cu38      1.0  0.63579  0.14510  0.62906  1.0000
  C   C613      1.0  0.70194  0.00281  0.38010  1.0000
  C   C614      1.0  0.72330  0.98148  0.38011  1.0000
  C   C615      1.0  0.71553  0.95230  0.37988  1.0000
  C   C616      1.0  0.68639  0.94440  0.37966  1.0000
  C   C617      1.0  0.66494  0.96578  0.37966  1.0000
  C   C618      1.0  0.67279  0.99495  0.37988  1.0000
  O   O249      1.0  0.70957  0.03143  0.38032  1.0000
  O   O250      1.0  0.75189  0.98919  0.38032  1.0000
  H   H173      1.0  0.73138  0.93655  0.37989  1.0000
  O   O251      1.0  0.67885  0.91571  0.37944  1.0000
  O   O252      1.0  0.63626  0.95817  0.37944  1.0000
  H   H174      1.0  0.65697  0.01074  0.37988  1.0000
  Cu  Cu39      1.0  0.63590  0.91517  0.37918  1.0000
  C   C619      1.0  0.77787  0.98158  0.13007  1.0000
  C   C620      1.0  0.79921  0.00293  0.13007  1.0000
  C   C621      1.0  0.82838  0.99517  0.12983  1.0000
  C   C622      1.0  0.83629  0.96602  0.12958  1.0000
  C   C623      1.0  0.81491  0.94457  0.12957  1.0000
  C   C624      1.0  0.78574  0.95242  0.12982  1.0000
  O   O253      1.0  0.74925  0.98920  0.13031  1.0000
  O   O254      1.0  0.79149  0.03152  0.13031  1.0000
  H   H175      1.0  0.84413  0.01101  0.12983  1.0000
  O   O255      1.0  0.86497  0.95848  0.12934  1.0000
  O   O256      1.0  0.82251  0.91589  0.12933  1.0000
  H   H176      1.0  0.76995  0.93661  0.12982  1.0000
  Cu  Cu40      1.0  0.86551  0.91553  0.12904  1.0000
  C   C625      1.0  0.70212  0.50274  0.63019  1.0000
  C   C626      1.0  0.72345  0.48137  0.63019  1.0000
  C   C627      1.0  0.71564  0.45221  0.62995  1.0000
  C   C628      1.0  0.68649  0.44434  0.62970  1.0000
  C   C629      1.0  0.66507  0.46575  0.62970  1.0000
  C   C630      1.0  0.67295  0.49491  0.62995  1.0000
  O   O257      1.0  0.70978  0.53135  0.63043  1.0000
  O   O258      1.0  0.75204  0.48905  0.63043  1.0000
  H   H177      1.0  0.73147  0.43643  0.62995  1.0000
  O   O259      1.0  0.67891  0.41567  0.62946  1.0000
  O   O260      1.0  0.63638  0.45818  0.62946  1.0000
  H   H178      1.0  0.65716  0.51072  0.62995  1.0000
  Cu  Cu41      1.0  0.63596  0.41519  0.62918  1.0000
  C   C631      1.0  0.79936  0.50308  0.88017  1.0000
  C   C632      1.0  0.77798  0.48176  0.88017  1.0000
  C   C633      1.0  0.78572  0.45258  0.87991  1.0000
  C   C634      1.0  0.81486  0.44464  0.87964  1.0000
  C   C635      1.0  0.83633  0.46600  0.87964  1.0000
  C   C636      1.0  0.82851  0.49518  0.87991  1.0000
  O   O261      1.0  0.79177  0.53170  0.88044  1.0000
  O   O262      1.0  0.74941  0.48951  0.88044  1.0000
  H   H179      1.0  0.76986  0.43684  0.87991  1.0000
  O   O263      1.0  0.82236  0.41595  0.87938  1.0000
  O   O264      1.0  0.86500  0.45836  0.87938  1.0000
  H   H180      1.0  0.84434  0.51095  0.87991  1.0000
  Cu  Cu42      1.0  0.86531  0.41537  0.87907  1.0000
  C   C637      1.0  0.79896  0.55765  0.13018  1.0000
  C   C638      1.0  0.77763  0.57902  0.13018  1.0000
  C   C639      1.0  0.78544  0.60818  0.12994  1.0000
  C   C640      1.0  0.81460  0.61604  0.12969  1.0000
  C   C641      1.0  0.83602  0.59463  0.12969  1.0000
  C   C642      1.0  0.82813  0.56547  0.12994  1.0000
  O   O265      1.0  0.79130  0.52904  0.13042  1.0000
  O   O266      1.0  0.74904  0.57134  0.13042  1.0000
  H   H181      1.0  0.76962  0.62396  0.12994  1.0000
  O   O267      1.0  0.82218  0.64472  0.12945  1.0000
  O   O268      1.0  0.86471  0.60220  0.12945  1.0000
  H   H182      1.0  0.84392  0.54966  0.12994  1.0000
  Cu  Cu43      1.0  0.86513  0.64519  0.12917  1.0000
  C   C643      1.0  0.72309  0.57864  0.38016  1.0000
  C   C644      1.0  0.70172  0.55731  0.38016  1.0000
  C   C645      1.0  0.67256  0.56511  0.37990  1.0000
  C   C646      1.0  0.66469  0.59427  0.37964  1.0000
  C   C647      1.0  0.68610  0.61569  0.37964  1.0000
  C   C648      1.0  0.71526  0.60780  0.37990  1.0000
  O   O269      1.0  0.75170  0.57098  0.38041  1.0000
  O   O270      1.0  0.70940  0.52871  0.38041  1.0000
  H   H183      1.0  0.65679  0.54929  0.37990  1.0000
  O   O271      1.0  0.63602  0.60184  0.37939  1.0000
  O   O272      1.0  0.67853  0.64438  0.37939  1.0000
  H   H184      1.0  0.73107  0.62360  0.37990  1.0000
  Cu  Cu44      1.0  0.63554  0.64479  0.37908  1.0000
  C   C649      1.0  0.29908  0.55755  0.38009  1.0000
  C   C650      1.0  0.27773  0.57889  0.38009  1.0000
  C   C651      1.0  0.28550  0.60806  0.37987  1.0000
  C   C652      1.0  0.31465  0.61596  0.37965  1.0000
  C   C653      1.0  0.33609  0.59458  0.37965  1.0000
  C   C654      1.0  0.32824  0.56541  0.37987  1.0000
  O   O273      1.0  0.29146  0.52893  0.38031  1.0000
  O   O274      1.0  0.24914  0.57117  0.38031  1.0000
  H   H185      1.0  0.26966  0.62382  0.37987  1.0000
  O   O275      1.0  0.32219  0.64465  0.37943  1.0000
  O   O276      1.0  0.36477  0.60219  0.37943  1.0000
  H   H186      1.0  0.34405  0.54962  0.37987  1.0000
  Cu  Cu45      1.0  0.36514  0.64518  0.37917  1.0000
  C   C655      1.0  0.20188  0.55744  0.13007  1.0000
  C   C656      1.0  0.22323  0.57878  0.13007  1.0000
  C   C657      1.0  0.21545  0.60795  0.12982  1.0000
  C   C658      1.0  0.18630  0.61585  0.12957  1.0000
  C   C659      1.0  0.16487  0.59446  0.12957  1.0000
  C   C660      1.0  0.17273  0.56529  0.12982  1.0000
  O   O277      1.0  0.20952  0.52882  0.13031  1.0000
  O   O278      1.0  0.25182  0.57108  0.13031  1.0000
  H   H187      1.0  0.23129  0.62371  0.12982  1.0000
  O   O279      1.0  0.17876  0.64453  0.12933  1.0000
  O   O280      1.0  0.13618  0.60205  0.12933  1.0000
  H   H188      1.0  0.15692  0.54950  0.12982  1.0000
  Cu  Cu46      1.0  0.13580  0.64505  0.12904  1.0000
  C   C661      1.0  0.20196  0.50285  0.88008  1.0000
  C   C662      1.0  0.22332  0.48151  0.88008  1.0000
  C   C663      1.0  0.21555  0.45234  0.87985  1.0000
  C   C664      1.0  0.18640  0.44443  0.87963  1.0000
  C   C665      1.0  0.16496  0.46581  0.87963  1.0000
  C   C666      1.0  0.17281  0.49498  0.87985  1.0000
  O   O281      1.0  0.20959  0.53147  0.88030  1.0000
  O   O282      1.0  0.25191  0.48922  0.88030  1.0000
  H   H189      1.0  0.23139  0.43658  0.87985  1.0000
  O   O283      1.0  0.17886  0.41575  0.87941  1.0000
  O   O284      1.0  0.13627  0.45821  0.87941  1.0000
  H   H190      1.0  0.15699  0.51078  0.87985  1.0000
  Cu  Cu47      1.0  0.13591  0.41522  0.87914  1.0000
  C   C667      1.0  0.27790  0.48167  0.63006  1.0000
  C   C668      1.0  0.29924  0.50302  0.63006  1.0000
  C   C669      1.0  0.32841  0.49524  0.62982  1.0000
  C   C670      1.0  0.33631  0.46609  0.62957  1.0000
  C   C671      1.0  0.31492  0.44465  0.62957  1.0000
  C   C672      1.0  0.28576  0.45251  0.62982  1.0000
  O   O285      1.0  0.24928  0.48929  0.63030  1.0000
  O   O286      1.0  0.29153  0.53161  0.63030  1.0000
  H   H191      1.0  0.34417  0.51108  0.62982  1.0000
  O   O287      1.0  0.36499  0.45855  0.62934  1.0000
  O   O288      1.0  0.32252  0.41597  0.62934  1.0000
  H   H192      1.0  0.26996  0.43670  0.62982  1.0000
  Cu  Cu48      1.0  0.36551  0.41560  0.62905  1.0000
