data_image0
_chemical_formula_structural       Fe16C7NCNCNC3NCNC11NCNC7NHO2H2O2H2O2H2O2HNiC7NCNCNC3NCNC11NCNC7NHO2H2O2H2O2H2O2HNiC7NCNCNC3NCNC11NCNC7NHO2H2O2H2O2H2O2HNiC7NCNCNC3NCNC11NCNC7NHO2H2O2H2O2H2O2HNiC7NCNCNC3NCNC11NCNC7NHO2H2O2H2O2H2O2HNiC7NCNCNC3NCNC11NCNC7NHO2H2O2H2O2H2O2HNiC7NCNCNC3NCNC11NCNC7NHO2H2O2H2O2H2O2HNiC7NCNCNC3NCNC11NCNC7NHO2H2O2H2O2H2O2HNiC7NCNCNC3NCNC11NCNC7NHO2H2O2H2O2H2O2HNiC7NCNCNC3NCNC11NCNC7NHO2H2O2H2O2H2O2HNiC7NCNCNC3NCNC11NCNC7NHO2H2O2H2O2H2O2HNiC7NCNCNC3NCNC11NCNC7NHO2H2O2H2O2H2O2HNiC6O2HO2HCuC6O2HO2HCuC6O2HO2HCuC6O2HO2HCuC6O2HO2HCuC6O2HO2HCuC6O2HO2HCuC6O2HO2HCuC6O2HO2HCuC6O2HO2HCuC6O2HO2HCuC6O2HO2HCuC6O2HO2HCuC6O2HO2HCuC6O2HO2HCuC6O2HO2HCuC6O2HO2HCuC6O2HO2HCuC6O2HO2HCuC6O2HO2HCuC6O2HO2HCuC6O2HO2HCuC6O2HO2HCuC6O2HO2HCuC6O2HO2HCuC6O2HO2HCuC6O2HO2HCuC6O2HO2HCuC6O2HO2HCuC6O2HO2HCuC6O2HO2HCuC6O2HO2HCuC6O2HO2HCuC6O2HO2HCuC6O2HO2HCuC6O2HO2HCuC6O2HO2HCuC6O2HO2HCuC6O2HO2HCuC6O2HO2HCuC6O2HO2HCuC6O2HO2HCuC6O2HO2HCuC6O2HO2HCuC6O2HO2HCuC6O2HO2HCuC6O2HO2HCuC6O2HO2HCu
_chemical_formula_sum              "Fe16 C672 N96 H192 O288 Ni12 Cu48"
_cell_length_a       50.9762
_cell_length_b       50.974
_cell_length_c       101.947
_cell_angle_alpha    90.0024
_cell_angle_beta     90.0001
_cell_angle_gamma    89.9997

_space_group_name_H-M_alt    "P 1"
_space_group_IT_number       1

loop_
  _space_group_symop_operation_xyz
  'x, y, z'

loop_
  _atom_site_type_symbol
  _atom_site_label
  _atom_site_symmetry_multiplicity
  _atom_site_fract_x
  _atom_site_fract_y
  _atom_site_fract_z
  _atom_site_occupancy
  Fe  Fe1       1.0  0.25084  0.02862  0.12692  1.0000
  Fe  Fe2       1.0  0.25083  0.02877  0.37695  1.0000
  Fe  Fe3       1.0  0.25071  0.02868  0.62693  1.0000
  Fe  Fe4       1.0  0.25071  0.02858  0.87692  1.0000
  Fe  Fe5       1.0  0.75067  0.02873  0.87685  1.0000
  Fe  Fe6       1.0  0.75066  0.02851  0.62686  1.0000
  Fe  Fe7       1.0  0.75086  0.02861  0.37686  1.0000
  Fe  Fe8       1.0  0.75084  0.02877  0.12684  1.0000
  Fe  Fe9       1.0  0.75086  0.52852  0.62694  1.0000
  Fe  Fe10      1.0  0.75085  0.52875  0.87696  1.0000
  Fe  Fe11      1.0  0.75070  0.52877  0.12694  1.0000
  Fe  Fe12      1.0  0.75068  0.52859  0.37694  1.0000
  Fe  Fe13      1.0  0.25069  0.52875  0.37686  1.0000
  Fe  Fe14      1.0  0.25066  0.52861  0.12687  1.0000
  Fe  Fe15      1.0  0.25086  0.52857  0.87687  1.0000
  Fe  Fe16      1.0  0.25084  0.52867  0.62685  1.0000
  C   C1        1.0  0.10227  0.83687  0.12665  1.0000
  C   C2        1.0  0.10998  0.86625  0.12662  1.0000
  C   C3        1.0  0.08840  0.88784  0.12657  1.0000
  C   C4        1.0  0.05902  0.88017  0.12655  1.0000
  C   C5        1.0  0.05234  0.85087  0.12658  1.0000
  C   C6        1.0  0.07297  0.83022  0.12664  1.0000
  C   C7        1.0  0.05921  0.80357  0.12665  1.0000
  N   N1        1.0  0.02937  0.80729  0.12661  1.0000
  C   C8        1.0  0.02568  0.83713  0.12656  1.0000
  N   N2        1.0  0.00010  0.85182  0.12650  1.0000
  C   C9        1.0  0.97590  0.83715  0.12651  1.0000
  N   N3        1.0  0.97219  0.80731  0.12655  1.0000
  C   C10       1.0  0.94234  0.80361  0.12657  1.0000
  C   C11       1.0  0.92860  0.83027  0.12653  1.0000
  C   C12       1.0  0.94924  0.85091  0.12649  1.0000
  N   N4        1.0  0.97217  0.75012  0.12658  1.0000
  C   C13       1.0  0.94233  0.75383  0.12662  1.0000
  N   N5        1.0  0.92766  0.77872  0.12664  1.0000
  C   C14       1.0  0.92857  0.72718  0.12660  1.0000
  C   C15       1.0  0.94920  0.70653  0.12654  1.0000
  C   C16       1.0  0.97586  0.72028  0.12653  1.0000
  C   C17       1.0  0.94257  0.88020  0.12647  1.0000
  C   C18       1.0  0.91319  0.88789  0.12647  1.0000
  C   C19       1.0  0.89161  0.86630  0.12648  1.0000
  C   C20       1.0  0.89930  0.83693  0.12652  1.0000
  C   C21       1.0  0.94253  0.67724  0.12652  1.0000
  C   C22       1.0  0.91315  0.66955  0.12656  1.0000
  C   C23       1.0  0.89158  0.69114  0.12661  1.0000
  C   C24       1.0  0.89927  0.72052  0.12662  1.0000
  N   N6        1.0  0.02935  0.75011  0.12657  1.0000
  C   C25       1.0  0.02563  0.72026  0.12651  1.0000
  N   N7        1.0  0.00010  0.70559  0.12647  1.0000
  C   C26       1.0  0.05228  0.70650  0.12652  1.0000
  C   C27       1.0  0.07293  0.72713  0.12658  1.0000
  C   C28       1.0  0.05919  0.75380  0.12662  1.0000
  C   C29       1.0  0.10222  0.72045  0.12658  1.0000
  C   C30       1.0  0.10989  0.69106  0.12652  1.0000
  C   C31       1.0  0.08829  0.66949  0.12648  1.0000
  C   C32       1.0  0.05892  0.67720  0.12648  1.0000
  N   N8        1.0  0.07387  0.77868  0.12669  1.0000
  H   H1        1.0  0.11659  0.82206  0.12668  1.0000
  O   O1        1.0  0.13459  0.87291  0.12663  1.0000
  O   O2        1.0  0.09509  0.91246  0.12655  1.0000
  H   H2        1.0  0.04422  0.89450  0.12651  1.0000
  H   H3        1.0  0.95737  0.89453  0.12645  1.0000
  O   O3        1.0  0.90651  0.91250  0.12646  1.0000
  O   O4        1.0  0.86699  0.87297  0.12646  1.0000
  H   H4        1.0  0.88498  0.82212  0.12653  1.0000
  H   H5        1.0  0.95733  0.66291  0.12649  1.0000
  O   O5        1.0  0.90648  0.64494  0.12657  1.0000
  O   O6        1.0  0.86696  0.68448  0.12663  1.0000
  H   H6        1.0  0.88495  0.73532  0.12665  1.0000
  H   H7        1.0  0.11656  0.73524  0.12661  1.0000
  O   O7        1.0  0.13450  0.68437  0.12650  1.0000
  O   O8        1.0  0.09495  0.64487  0.12645  1.0000
  H   H8        1.0  0.04411  0.66289  0.12644  1.0000
  Ni  Ni1       1.0  0.00010  0.77871  0.12660  1.0000
  C   C33       1.0  0.60228  0.83686  0.37666  1.0000
  C   C34       1.0  0.60998  0.86624  0.37663  1.0000
  C   C35       1.0  0.58841  0.88783  0.37658  1.0000
  C   C36       1.0  0.55902  0.88015  0.37656  1.0000
  C   C37       1.0  0.55234  0.85086  0.37659  1.0000
  C   C38       1.0  0.57298  0.83021  0.37665  1.0000
  C   C39       1.0  0.55921  0.80356  0.37666  1.0000
  N   N9        1.0  0.52938  0.80727  0.37662  1.0000
  C   C40       1.0  0.52568  0.83712  0.37657  1.0000
  N   N10       1.0  0.50080  0.85181  0.37651  1.0000
  C   C41       1.0  0.47590  0.83714  0.37652  1.0000
  N   N11       1.0  0.47219  0.80729  0.37656  1.0000
  C   C42       1.0  0.44235  0.80360  0.37658  1.0000
  C   C43       1.0  0.42860  0.83025  0.37654  1.0000
  C   C44       1.0  0.44925  0.85090  0.37651  1.0000
  N   N12       1.0  0.47217  0.75011  0.37659  1.0000
  C   C45       1.0  0.44233  0.75382  0.37663  1.0000
  N   N13       1.0  0.42766  0.77871  0.37665  1.0000
  C   C46       1.0  0.42857  0.72717  0.37660  1.0000
  C   C47       1.0  0.44921  0.70652  0.37655  1.0000
  C   C48       1.0  0.47587  0.72027  0.37653  1.0000
  C   C49       1.0  0.44258  0.88019  0.37648  1.0000
  C   C50       1.0  0.41319  0.88788  0.37649  1.0000
  C   C51       1.0  0.39161  0.86629  0.37650  1.0000
  C   C52       1.0  0.39931  0.83691  0.37653  1.0000
  C   C53       1.0  0.44254  0.67723  0.37652  1.0000
  C   C54       1.0  0.41316  0.66954  0.37656  1.0000
  C   C55       1.0  0.39158  0.69113  0.37661  1.0000
  C   C56       1.0  0.39928  0.72051  0.37663  1.0000
  N   N14       1.0  0.52935  0.75009  0.37658  1.0000
  C   C57       1.0  0.52564  0.72025  0.37651  1.0000
  N   N15       1.0  0.50075  0.70558  0.37647  1.0000
  C   C58       1.0  0.55228  0.70649  0.37652  1.0000
  C   C59       1.0  0.57294  0.72712  0.37658  1.0000
  C   C60       1.0  0.55919  0.75378  0.37663  1.0000
  C   C61       1.0  0.60223  0.72043  0.37658  1.0000
  C   C62       1.0  0.60990  0.69105  0.37652  1.0000
  C   C63       1.0  0.58830  0.66948  0.37648  1.0000
  C   C64       1.0  0.55892  0.67719  0.37648  1.0000
  N   N16       1.0  0.57388  0.77867  0.37669  1.0000
  H   H9        1.0  0.61660  0.82205  0.37669  1.0000
  O   O9        1.0  0.63460  0.87290  0.37664  1.0000
  O   O10       1.0  0.59509  0.91244  0.37656  1.0000
  H   H10       1.0  0.54423  0.89448  0.37653  1.0000
  H   H11       1.0  0.45737  0.89452  0.37647  1.0000
  O   O11       1.0  0.40652  0.91249  0.37648  1.0000
  O   O12       1.0  0.36700  0.87296  0.37647  1.0000
  H   H12       1.0  0.38499  0.82211  0.37655  1.0000
  H   H13       1.0  0.45733  0.66290  0.37649  1.0000
  O   O13       1.0  0.40648  0.64493  0.37657  1.0000
  O   O14       1.0  0.36697  0.68447  0.37664  1.0000
  H   H14       1.0  0.38495  0.73531  0.37666  1.0000
  H   H15       1.0  0.61656  0.73523  0.37662  1.0000
  O   O15       1.0  0.63451  0.68436  0.37650  1.0000
  O   O16       1.0  0.59496  0.64486  0.37645  1.0000
  H   H16       1.0  0.54411  0.66287  0.37644  1.0000
  Ni  Ni2       1.0  0.50078  0.77870  0.37661  1.0000
  C   C65       1.0  0.60228  0.33677  0.62665  1.0000
  C   C66       1.0  0.60998  0.36615  0.62662  1.0000
  C   C67       1.0  0.58841  0.38775  0.62657  1.0000
  C   C68       1.0  0.55902  0.38007  0.62655  1.0000
  C   C69       1.0  0.55234  0.35078  0.62658  1.0000
  C   C70       1.0  0.57298  0.33012  0.62664  1.0000
  C   C71       1.0  0.55921  0.30347  0.62665  1.0000
  N   N17       1.0  0.52937  0.30719  0.62661  1.0000
  C   C72       1.0  0.52568  0.33703  0.62656  1.0000
  N   N18       1.0  0.50080  0.35172  0.62650  1.0000
  C   C73       1.0  0.47590  0.33705  0.62651  1.0000
  N   N19       1.0  0.47219  0.30721  0.62655  1.0000
  C   C74       1.0  0.44235  0.30351  0.62657  1.0000
  C   C75       1.0  0.42860  0.33017  0.62653  1.0000
  C   C76       1.0  0.44925  0.35081  0.62649  1.0000
  N   N20       1.0  0.47217  0.25003  0.62658  1.0000
  C   C77       1.0  0.44233  0.25374  0.62662  1.0000
  N   N21       1.0  0.42766  0.27863  0.62664  1.0000
  C   C78       1.0  0.42857  0.22708  0.62659  1.0000
  C   C79       1.0  0.44921  0.20643  0.62654  1.0000
  C   C80       1.0  0.47587  0.22018  0.62652  1.0000
  C   C81       1.0  0.44258  0.38011  0.62647  1.0000
  C   C82       1.0  0.41319  0.38779  0.62647  1.0000
  C   C83       1.0  0.39161  0.36621  0.62648  1.0000
  C   C84       1.0  0.39931  0.33683  0.62652  1.0000
  C   C85       1.0  0.44254  0.17714  0.62651  1.0000
  C   C86       1.0  0.41316  0.16946  0.62655  1.0000
  C   C87       1.0  0.39158  0.19105  0.62660  1.0000
  C   C88       1.0  0.39927  0.22042  0.62661  1.0000
  N   N22       1.0  0.52935  0.25001  0.62657  1.0000
  C   C89       1.0  0.52564  0.22017  0.62650  1.0000
  N   N23       1.0  0.50075  0.20550  0.62646  1.0000
  C   C90       1.0  0.55228  0.20640  0.62651  1.0000
  C   C91       1.0  0.57294  0.22703  0.62657  1.0000
  C   C92       1.0  0.55919  0.25370  0.62662  1.0000
  C   C93       1.0  0.60223  0.22035  0.62657  1.0000
  C   C94       1.0  0.60990  0.19096  0.62651  1.0000
  C   C95       1.0  0.58830  0.16939  0.62647  1.0000
  C   C96       1.0  0.55892  0.17710  0.62647  1.0000
  N   N24       1.0  0.57388  0.27858  0.62669  1.0000
  H   H17       1.0  0.61660  0.32197  0.62668  1.0000
  O   O17       1.0  0.63460  0.37281  0.62663  1.0000
  O   O18       1.0  0.59509  0.41236  0.62656  1.0000
  H   H18       1.0  0.54423  0.39440  0.62652  1.0000
  H   H19       1.0  0.45737  0.39444  0.62646  1.0000
  O   O19       1.0  0.40652  0.41241  0.62647  1.0000
  O   O20       1.0  0.36700  0.37287  0.62646  1.0000
  H   H20       1.0  0.38498  0.32203  0.62653  1.0000
  H   H21       1.0  0.45733  0.16281  0.62648  1.0000
  O   O21       1.0  0.40648  0.14485  0.62655  1.0000
  O   O22       1.0  0.36697  0.18438  0.62662  1.0000
  H   H22       1.0  0.38495  0.23523  0.62664  1.0000
  H   H23       1.0  0.61656  0.23514  0.62661  1.0000
  O   O23       1.0  0.63451  0.18427  0.62649  1.0000
  O   O24       1.0  0.59495  0.14477  0.62644  1.0000
  H   H24       1.0  0.54411  0.16279  0.62643  1.0000
  Ni  Ni3       1.0  0.50078  0.27861  0.62660  1.0000
  C   C97       1.0  0.89926  0.22047  0.87667  1.0000
  C   C98       1.0  0.89155  0.19109  0.87664  1.0000
  C   C99       1.0  0.91313  0.16950  0.87659  1.0000
  C   C100      1.0  0.94251  0.17718  0.87656  1.0000
  C   C101      1.0  0.94919  0.20647  0.87660  1.0000
  C   C102      1.0  0.92856  0.22712  0.87666  1.0000
  C   C103      1.0  0.94232  0.25377  0.87667  1.0000
  N   N25       1.0  0.97216  0.25006  0.87663  1.0000
  C   C104      1.0  0.97585  0.22021  0.87658  1.0000
  N   N26       1.0  0.00010  0.20553  0.87651  1.0000
  C   C105      1.0  0.02563  0.22019  0.87652  1.0000
  N   N27       1.0  0.02934  0.25004  0.87657  1.0000
  C   C106      1.0  0.05919  0.25373  0.87659  1.0000
  C   C107      1.0  0.07293  0.22708  0.87654  1.0000
  C   C108      1.0  0.05229  0.20643  0.87651  1.0000
  N   N28       1.0  0.02936  0.30722  0.87660  1.0000
  C   C109      1.0  0.05920  0.30351  0.87664  1.0000
  N   N29       1.0  0.07387  0.27862  0.87666  1.0000
  C   C110      1.0  0.07297  0.33016  0.87661  1.0000
  C   C111      1.0  0.05233  0.35081  0.87656  1.0000
  C   C112      1.0  0.02567  0.33706  0.87655  1.0000
  C   C113      1.0  0.05896  0.17714  0.87648  1.0000
  C   C114      1.0  0.08834  0.16945  0.87648  1.0000
  C   C115      1.0  0.10992  0.19104  0.87650  1.0000
  C   C116      1.0  0.10223  0.22042  0.87654  1.0000
  C   C117      1.0  0.05900  0.38010  0.87654  1.0000
  C   C118      1.0  0.08838  0.38779  0.87658  1.0000
  C   C119      1.0  0.10995  0.36620  0.87662  1.0000
  C   C120      1.0  0.10226  0.33682  0.87664  1.0000
  N   N30       1.0  0.97218  0.30724  0.87659  1.0000
  C   C121      1.0  0.97590  0.33708  0.87653  1.0000
  N   N31       1.0  0.00010  0.35175  0.87648  1.0000
  C   C122      1.0  0.94925  0.35085  0.87654  1.0000
  C   C123      1.0  0.92860  0.33021  0.87660  1.0000
  C   C124      1.0  0.94234  0.30355  0.87664  1.0000
  C   C125      1.0  0.89931  0.33690  0.87660  1.0000
  C   C126      1.0  0.89164  0.36628  0.87654  1.0000
  C   C127      1.0  0.91324  0.38786  0.87650  1.0000
  C   C128      1.0  0.94261  0.38015  0.87650  1.0000
  N   N32       1.0  0.92766  0.27867  0.87671  1.0000
  H   H25       1.0  0.88494  0.23528  0.87670  1.0000
  O   O25       1.0  0.86694  0.18443  0.87665  1.0000
  O   O26       1.0  0.90644  0.14489  0.87657  1.0000
  H   H26       1.0  0.95731  0.16285  0.87653  1.0000
  H   H27       1.0  0.04416  0.16281  0.87647  1.0000
  O   O27       1.0  0.09502  0.14484  0.87648  1.0000
  O   O28       1.0  0.13454  0.18437  0.87647  1.0000
  H   H28       1.0  0.11655  0.23522  0.87655  1.0000
  H   H29       1.0  0.04420  0.39443  0.87651  1.0000
  O   O29       1.0  0.09505  0.41240  0.87658  1.0000
  O   O30       1.0  0.13457  0.37287  0.87665  1.0000
  H   H30       1.0  0.11659  0.32202  0.87667  1.0000
  H   H31       1.0  0.88497  0.32211  0.87663  1.0000
  O   O31       1.0  0.86703  0.37297  0.87652  1.0000
  O   O32       1.0  0.90658  0.41247  0.87647  1.0000
  H   H32       1.0  0.95742  0.39446  0.87646  1.0000
  Ni  Ni4       1.0  0.00010  0.27864  0.87662  1.0000
  C   C129      1.0  0.89925  0.02812  0.53100  1.0000
  C   C130      1.0  0.89155  0.02805  0.54569  1.0000
  C   C131      1.0  0.91313  0.02796  0.55648  1.0000
  C   C132      1.0  0.94251  0.02792  0.55264  1.0000
  C   C133      1.0  0.94919  0.02799  0.53800  1.0000
  C   C134      1.0  0.92855  0.02810  0.52767  1.0000
  C   C135      1.0  0.94232  0.02814  0.51435  1.0000
  N   N33       1.0  0.97216  0.02806  0.51620  1.0000
  C   C136      1.0  0.97585  0.02796  0.53113  1.0000
  N   N34       1.0  0.00010  0.02784  0.53847  1.0000
  C   C137      1.0  0.02563  0.02787  0.53114  1.0000
  N   N35       1.0  0.02934  0.02797  0.51621  1.0000
  C   C138      1.0  0.05918  0.02802  0.51436  1.0000
  C   C139      1.0  0.07293  0.02793  0.52769  1.0000
  C   C140      1.0  0.05229  0.02785  0.53802  1.0000
  N   N36       1.0  0.02936  0.02804  0.48762  1.0000
  C   C141      1.0  0.05920  0.02812  0.48948  1.0000
  N   N37       1.0  0.07387  0.02816  0.50192  1.0000
  C   C142      1.0  0.07296  0.02808  0.47615  1.0000
  C   C143      1.0  0.05233  0.02797  0.46582  1.0000
  C   C144      1.0  0.02567  0.02792  0.47270  1.0000
  C   C145      1.0  0.05896  0.02781  0.55266  1.0000
  C   C146      1.0  0.08834  0.02782  0.55651  1.0000
  C   C147      1.0  0.10992  0.02785  0.54571  1.0000
  C   C148      1.0  0.10223  0.02793  0.53102  1.0000
  C   C149      1.0  0.05900  0.02793  0.45118  1.0000
  C   C150      1.0  0.08837  0.02802  0.44734  1.0000
  C   C151      1.0  0.10995  0.02811  0.45813  1.0000
  C   C152      1.0  0.10226  0.02814  0.47282  1.0000
  N   N38       1.0  0.97218  0.02799  0.48761  1.0000
  C   C153      1.0  0.97590  0.02788  0.47269  1.0000
  N   N39       1.0  0.00010  0.02779  0.46536  1.0000
  C   C154      1.0  0.94925  0.02788  0.46581  1.0000
  C   C155      1.0  0.92860  0.02800  0.47612  1.0000
  C   C156      1.0  0.94234  0.02808  0.48946  1.0000
  C   C157      1.0  0.89931  0.02799  0.47278  1.0000
  C   C158      1.0  0.89164  0.02787  0.45809  1.0000
  C   C159      1.0  0.91323  0.02780  0.44730  1.0000
  C   C160      1.0  0.94261  0.02780  0.45116  1.0000
  N   N40       1.0  0.92765  0.02821  0.50190  1.0000
  H   H33       1.0  0.88494  0.02818  0.52359  1.0000
  O   O33       1.0  0.86693  0.02806  0.54902  1.0000
  O   O34       1.0  0.90644  0.02791  0.56879  1.0000
  H   H34       1.0  0.95731  0.02785  0.55981  1.0000
  H   H35       1.0  0.04416  0.02777  0.55983  1.0000
  O   O35       1.0  0.09501  0.02780  0.56881  1.0000
  O   O36       1.0  0.13453  0.02781  0.54905  1.0000
  H   H36       1.0  0.11655  0.02796  0.52362  1.0000
  H   H37       1.0  0.04420  0.02785  0.44401  1.0000
  O   O37       1.0  0.09505  0.02803  0.43503  1.0000
  O   O38       1.0  0.13457  0.02818  0.45480  1.0000
  H   H38       1.0  0.11658  0.02820  0.48022  1.0000
  H   H39       1.0  0.88497  0.02805  0.48018  1.0000
  O   O39       1.0  0.86703  0.02782  0.45475  1.0000
  O   O40       1.0  0.90658  0.02774  0.43499  1.0000
  H   H40       1.0  0.95742  0.02774  0.44400  1.0000
  Ni  Ni5       1.0  0.00010  0.02806  0.50191  1.0000
  C   C161      1.0  0.25127  0.72043  0.70114  1.0000
  C   C162      1.0  0.25134  0.69105  0.69729  1.0000
  C   C163      1.0  0.25144  0.66946  0.70808  1.0000
  C   C164      1.0  0.25148  0.67714  0.72277  1.0000
  C   C165      1.0  0.25142  0.70643  0.72611  1.0000
  C   C166      1.0  0.25130  0.72708  0.71579  1.0000
  C   C167      1.0  0.25126  0.75373  0.72267  1.0000
  N   N41       1.0  0.25135  0.75002  0.73759  1.0000
  C   C168      1.0  0.25145  0.72018  0.73944  1.0000
  N   N42       1.0  0.25158  0.70550  0.75188  1.0000
  C   C169      1.0  0.25156  0.72017  0.76433  1.0000
  N   N43       1.0  0.25146  0.75001  0.76619  1.0000
  C   C170      1.0  0.25142  0.75371  0.78111  1.0000
  C   C171      1.0  0.25151  0.72706  0.78798  1.0000
  C   C172      1.0  0.25159  0.70641  0.77766  1.0000
  N   N44       1.0  0.25139  0.80719  0.76619  1.0000
  C   C173      1.0  0.25131  0.80349  0.78112  1.0000
  N   N45       1.0  0.25128  0.77860  0.78845  1.0000
  C   C174      1.0  0.25136  0.83014  0.78800  1.0000
  C   C175      1.0  0.25146  0.85079  0.77768  1.0000
  C   C176      1.0  0.25150  0.83704  0.76435  1.0000
  C   C177      1.0  0.25164  0.67712  0.78100  1.0000
  C   C178      1.0  0.25164  0.66944  0.79569  1.0000
  C   C179      1.0  0.25161  0.69102  0.80648  1.0000
  C   C180      1.0  0.25153  0.72040  0.80263  1.0000
  C   C181      1.0  0.25150  0.88008  0.78101  1.0000
  C   C182      1.0  0.25142  0.88777  0.79570  1.0000
  C   C183      1.0  0.25133  0.86618  0.80649  1.0000
  C   C184      1.0  0.25131  0.83681  0.80264  1.0000
  N   N46       1.0  0.25141  0.80720  0.73760  1.0000
  C   C185      1.0  0.25153  0.83705  0.73946  1.0000
  N   N47       1.0  0.25162  0.85172  0.75190  1.0000
  C   C186      1.0  0.25152  0.85081  0.72614  1.0000
  C   C187      1.0  0.25139  0.83018  0.71581  1.0000
  C   C188      1.0  0.25131  0.80351  0.72268  1.0000
  C   C189      1.0  0.25139  0.83685  0.70116  1.0000
  C   C190      1.0  0.25150  0.86624  0.69733  1.0000
  C   C191      1.0  0.25158  0.88782  0.70813  1.0000
  C   C192      1.0  0.25159  0.88011  0.72281  1.0000
  N   N48       1.0  0.25118  0.77863  0.71534  1.0000
  H   H41       1.0  0.25120  0.73524  0.69398  1.0000
  O   O41       1.0  0.25132  0.68439  0.68498  1.0000
  O   O42       1.0  0.25148  0.64485  0.70474  1.0000
  H   H42       1.0  0.25156  0.66281  0.73017  1.0000
  H   H43       1.0  0.25167  0.66279  0.77360  1.0000
  O   O43       1.0  0.25165  0.64482  0.79903  1.0000
  O   O44       1.0  0.25166  0.68436  0.81879  1.0000
  H   H44       1.0  0.25150  0.73520  0.80979  1.0000
  H   H45       1.0  0.25157  0.89441  0.77361  1.0000
  O   O45       1.0  0.25140  0.91238  0.79904  1.0000
  O   O46       1.0  0.25128  0.87285  0.81880  1.0000
  H   H46       1.0  0.25125  0.82200  0.80981  1.0000
  H   H47       1.0  0.25133  0.82206  0.69400  1.0000
  O   O47       1.0  0.25155  0.87293  0.68502  1.0000
  O   O48       1.0  0.25164  0.91243  0.70480  1.0000
  H   H48       1.0  0.25166  0.89442  0.73022  1.0000
  Ni  Ni6       1.0  0.25136  0.77861  0.75189  1.0000
  C   C193      1.0  0.39929  0.02962  0.03101  1.0000
  C   C194      1.0  0.39160  0.02956  0.04570  1.0000
  C   C195      1.0  0.41319  0.02947  0.05649  1.0000
  C   C196      1.0  0.44257  0.02943  0.05264  1.0000
  C   C197      1.0  0.44923  0.02949  0.03799  1.0000
  C   C198      1.0  0.42858  0.02960  0.02767  1.0000
  C   C199      1.0  0.44233  0.02963  0.01434  1.0000
  N   N49       1.0  0.47217  0.02955  0.01619  1.0000
  C   C200      1.0  0.47589  0.02946  0.03111  1.0000
  N   N50       1.0  0.50078  0.02935  0.03845  1.0000
  C   C201      1.0  0.52567  0.02937  0.03111  1.0000
  N   N51       1.0  0.52936  0.02946  0.01618  1.0000
  C   C202      1.0  0.55920  0.02951  0.01432  1.0000
  C   C203      1.0  0.57296  0.02943  0.02765  1.0000
  C   C204      1.0  0.55233  0.02935  0.03798  1.0000
  N   N52       1.0  0.52934  0.02951  0.98759  1.0000
  C   C205      1.0  0.55918  0.02960  0.98944  1.0000
  N   N53       1.0  0.57387  0.02964  0.00188  1.0000
  C   C206      1.0  0.57293  0.02955  0.97610  1.0000
  C   C207      1.0  0.55228  0.02943  0.96579  1.0000
  C   C208      1.0  0.52563  0.02939  0.97267  1.0000
  C   C209      1.0  0.55902  0.02931  0.05262  1.0000
  C   C210      1.0  0.58841  0.02933  0.05646  1.0000
  C   C211      1.0  0.60997  0.02935  0.04566  1.0000
  C   C212      1.0  0.60226  0.02942  0.03097  1.0000
  C   C213      1.0  0.55893  0.02938  0.95114  1.0000
  C   C214      1.0  0.58830  0.02947  0.94729  1.0000
  C   C215      1.0  0.60989  0.02957  0.95808  1.0000
  C   C216      1.0  0.60222  0.02960  0.97277  1.0000
  N   N54       1.0  0.47216  0.02947  0.98760  1.0000
  C   C217      1.0  0.47586  0.02934  0.97268  1.0000
  N   N55       1.0  0.50074  0.02926  0.96534  1.0000
  C   C218      1.0  0.44920  0.02934  0.96580  1.0000
  C   C219      1.0  0.42856  0.02947  0.97613  1.0000
  C   C220      1.0  0.44232  0.02956  0.98945  1.0000
  C   C221      1.0  0.39927  0.02946  0.97279  1.0000
  C   C222      1.0  0.39158  0.02933  0.95810  1.0000
  C   C223      1.0  0.41317  0.02925  0.94731  1.0000
  C   C224      1.0  0.44254  0.02925  0.95116  1.0000
  N   N56       1.0  0.42765  0.02969  0.00190  1.0000
  H   H49       1.0  0.38496  0.02968  0.02361  1.0000
  O   O49       1.0  0.36699  0.02957  0.04904  1.0000
  O   O50       1.0  0.40652  0.02943  0.06880  1.0000
  H   H50       1.0  0.45738  0.02937  0.05980  1.0000
  H   H51       1.0  0.54423  0.02928  0.05979  1.0000
  O   O51       1.0  0.59510  0.02932  0.06876  1.0000
  O   O52       1.0  0.63459  0.02931  0.04898  1.0000
  H   H52       1.0  0.61657  0.02945  0.02356  1.0000
  H   H53       1.0  0.54413  0.02931  0.94398  1.0000
  O   O53       1.0  0.59497  0.02948  0.93498  1.0000
  O   O54       1.0  0.63451  0.02963  0.95473  1.0000
  H   H54       1.0  0.61655  0.02967  0.98016  1.0000
  H   H55       1.0  0.38494  0.02952  0.98019  1.0000
  O   O55       1.0  0.36697  0.02928  0.95477  1.0000
  O   O56       1.0  0.40649  0.02919  0.93500  1.0000
  H   H56       1.0  0.45735  0.02919  0.94399  1.0000
  Ni  Ni7       1.0  0.50076  0.02954  0.00189  1.0000
  C   C225      1.0  0.24980  0.22044  0.20116  1.0000
  C   C226      1.0  0.24987  0.19106  0.19732  1.0000
  C   C227      1.0  0.24997  0.16948  0.20811  1.0000
  C   C228      1.0  0.25002  0.17718  0.22280  1.0000
  C   C229      1.0  0.24995  0.20647  0.22613  1.0000
  C   C230      1.0  0.24983  0.22711  0.21581  1.0000
  C   C231      1.0  0.24979  0.25377  0.22268  1.0000
  N   N57       1.0  0.24988  0.25007  0.23761  1.0000
  C   C232      1.0  0.24998  0.22023  0.23946  1.0000
  N   N58       1.0  0.25011  0.20556  0.25191  1.0000
  C   C233      1.0  0.25009  0.22024  0.26435  1.0000
  N   N59       1.0  0.24999  0.25009  0.26620  1.0000
  C   C234      1.0  0.24995  0.25381  0.28112  1.0000
  C   C235      1.0  0.25005  0.22716  0.28800  1.0000
  C   C236      1.0  0.25012  0.20650  0.27769  1.0000
  N   N60       1.0  0.24992  0.30727  0.26619  1.0000
  C   C237      1.0  0.24984  0.30358  0.28111  1.0000
  N   N61       1.0  0.24981  0.27870  0.28846  1.0000
  C   C238      1.0  0.24989  0.33024  0.28799  1.0000
  C   C239      1.0  0.24999  0.35088  0.27766  1.0000
  C   C240      1.0  0.25003  0.33711  0.26434  1.0000
  C   C241      1.0  0.25018  0.17721  0.28103  1.0000
  C   C242      1.0  0.25018  0.16954  0.29572  1.0000
  C   C243      1.0  0.25015  0.19114  0.30651  1.0000
  C   C244      1.0  0.25006  0.22052  0.30265  1.0000
  C   C245      1.0  0.25003  0.38018  0.28099  1.0000
  C   C246      1.0  0.24995  0.38788  0.29568  1.0000
  C   C247      1.0  0.24986  0.36630  0.30647  1.0000
  C   C248      1.0  0.24984  0.33692  0.30263  1.0000
  N   N62       1.0  0.24994  0.30725  0.23760  1.0000
  C   C249      1.0  0.25006  0.33710  0.23945  1.0000
  N   N63       1.0  0.25015  0.35178  0.25189  1.0000
  C   C250      1.0  0.25005  0.35085  0.22612  1.0000
  C   C251      1.0  0.24992  0.33020  0.21580  1.0000
  C   C252      1.0  0.24985  0.30355  0.22268  1.0000
  C   C253      1.0  0.24992  0.33687  0.20115  1.0000
  C   C254      1.0  0.25003  0.36625  0.19731  1.0000
  C   C255      1.0  0.25011  0.38783  0.20810  1.0000
  C   C256      1.0  0.25012  0.38014  0.22279  1.0000
  N   N64       1.0  0.24972  0.27865  0.21534  1.0000
  H   H57       1.0  0.24973  0.23524  0.19400  1.0000
  O   O57       1.0  0.24985  0.18438  0.18501  1.0000
  O   O58       1.0  0.25002  0.14486  0.20478  1.0000
  H   H58       1.0  0.25009  0.16285  0.23021  1.0000
  H   H59       1.0  0.25021  0.16287  0.27363  1.0000
  O   O59       1.0  0.25019  0.14493  0.29907  1.0000
  O   O60       1.0  0.25020  0.18449  0.31882  1.0000
  H   H60       1.0  0.25003  0.23533  0.30981  1.0000
  H   H61       1.0  0.25009  0.39450  0.27359  1.0000
  O   O61       1.0  0.24993  0.41249  0.29901  1.0000
  O   O62       1.0  0.24981  0.37298  0.31878  1.0000
  H   H62       1.0  0.24979  0.32213  0.30980  1.0000
  H   H63       1.0  0.24986  0.32207  0.19399  1.0000
  O   O63       1.0  0.25007  0.37292  0.18500  1.0000
  O   O64       1.0  0.25016  0.41245  0.20477  1.0000
  H   H64       1.0  0.25018  0.39446  0.23019  1.0000
  Ni  Ni8       1.0  0.24989  0.27867  0.25190  1.0000
  C   C257      1.0  0.75129  0.22051  0.20114  1.0000
  C   C258      1.0  0.75136  0.19113  0.19728  1.0000
  C   C259      1.0  0.75146  0.16953  0.20807  1.0000
  C   C260      1.0  0.75150  0.17721  0.22276  1.0000
  C   C261      1.0  0.75144  0.20650  0.22610  1.0000
  C   C262      1.0  0.75131  0.22716  0.21579  1.0000
  C   C263      1.0  0.75127  0.25381  0.22267  1.0000
  N   N65       1.0  0.75136  0.25009  0.23759  1.0000
  C   C264      1.0  0.75147  0.22025  0.23944  1.0000
  N   N66       1.0  0.75160  0.20556  0.25188  1.0000
  C   C265      1.0  0.75157  0.22023  0.26433  1.0000
  N   N67       1.0  0.75148  0.25007  0.26618  1.0000
  C   C266      1.0  0.75143  0.25377  0.28110  1.0000
  C   C267      1.0  0.75153  0.22711  0.28798  1.0000
  C   C268      1.0  0.75160  0.20647  0.27766  1.0000
  N   N68       1.0  0.75140  0.30725  0.26619  1.0000
  C   C269      1.0  0.75132  0.30354  0.28112  1.0000
  N   N69       1.0  0.75129  0.27865  0.28845  1.0000
  C   C270      1.0  0.75137  0.33020  0.28800  1.0000
  C   C271      1.0  0.75147  0.35085  0.27768  1.0000
  C   C272      1.0  0.75151  0.33710  0.26435  1.0000
  C   C273      1.0  0.75166  0.17717  0.28099  1.0000
  C   C274      1.0  0.75166  0.16949  0.29568  1.0000
  C   C275      1.0  0.75163  0.19107  0.30647  1.0000
  C   C276      1.0  0.75154  0.22045  0.30263  1.0000
  C   C277      1.0  0.75151  0.38014  0.28102  1.0000
  C   C278      1.0  0.75143  0.38782  0.29570  1.0000
  C   C279      1.0  0.75134  0.36623  0.30649  1.0000
  C   C280      1.0  0.75132  0.33686  0.30265  1.0000
  N   N70       1.0  0.75143  0.30727  0.23760  1.0000
  C   C281      1.0  0.75154  0.33711  0.23946  1.0000
  N   N71       1.0  0.75163  0.35178  0.25191  1.0000
  C   C282      1.0  0.75153  0.35088  0.22614  1.0000
  C   C283      1.0  0.75141  0.33025  0.21581  1.0000
  C   C284      1.0  0.75133  0.30358  0.22268  1.0000
  C   C285      1.0  0.75140  0.33693  0.20116  1.0000
  C   C286      1.0  0.75152  0.36632  0.19733  1.0000
  C   C287      1.0  0.75159  0.38789  0.20813  1.0000
  C   C288      1.0  0.75160  0.38018  0.22282  1.0000
  N   N72       1.0  0.75120  0.27870  0.21534  1.0000
  H   H65       1.0  0.75122  0.23532  0.19398  1.0000
  O   O65       1.0  0.75134  0.18447  0.18497  1.0000
  O   O66       1.0  0.75150  0.14492  0.20473  1.0000
  H   H66       1.0  0.75158  0.16288  0.23016  1.0000
  H   H67       1.0  0.75169  0.16285  0.27359  1.0000
  O   O67       1.0  0.75167  0.14487  0.29902  1.0000
  O   O68       1.0  0.75168  0.18441  0.31878  1.0000
  H   H68       1.0  0.75151  0.23525  0.30979  1.0000
  H   H69       1.0  0.75158  0.39447  0.27362  1.0000
  O   O69       1.0  0.75141  0.41243  0.29904  1.0000
  O   O70       1.0  0.75129  0.37290  0.31880  1.0000
  H   H70       1.0  0.75127  0.32205  0.30981  1.0000
  H   H71       1.0  0.75134  0.32214  0.19400  1.0000
  O   O71       1.0  0.75156  0.37301  0.18502  1.0000
  O   O72       1.0  0.75164  0.41251  0.20480  1.0000
  H   H72       1.0  0.75167  0.39449  0.23022  1.0000
  Ni  Ni9       1.0  0.75137  0.27867  0.25189  1.0000
  C   C289      1.0  0.74981  0.72036  0.70117  1.0000
  C   C290      1.0  0.74988  0.69098  0.69733  1.0000
  C   C291      1.0  0.74999  0.66940  0.70812  1.0000
  C   C292      1.0  0.75003  0.67710  0.72281  1.0000
  C   C293      1.0  0.74996  0.70640  0.72614  1.0000
  C   C294      1.0  0.74984  0.72703  0.71582  1.0000
  C   C295      1.0  0.74980  0.75370  0.72269  1.0000
  N   N73       1.0  0.74989  0.75000  0.73761  1.0000
  C   C296      1.0  0.74999  0.72016  0.73947  1.0000
  N   N74       1.0  0.75012  0.70549  0.75192  1.0000
  C   C297      1.0  0.75010  0.72018  0.76436  1.0000
  N   N75       1.0  0.75000  0.75003  0.76620  1.0000
  C   C298      1.0  0.74995  0.75375  0.78112  1.0000
  C   C299      1.0  0.75005  0.72710  0.78801  1.0000
  C   C300      1.0  0.75013  0.70644  0.77769  1.0000
  N   N76       1.0  0.74992  0.80721  0.76619  1.0000
  C   C301      1.0  0.74984  0.80352  0.78112  1.0000
  N   N77       1.0  0.74982  0.77864  0.78846  1.0000
  C   C302      1.0  0.74989  0.83019  0.78799  1.0000
  C   C303      1.0  0.74999  0.85082  0.77766  1.0000
  C   C304      1.0  0.75003  0.83705  0.76434  1.0000
  C   C305      1.0  0.75018  0.67715  0.78104  1.0000
  C   C306      1.0  0.75019  0.66949  0.79573  1.0000
  C   C307      1.0  0.75016  0.69109  0.80652  1.0000
  C   C308      1.0  0.75007  0.72046  0.80266  1.0000
  C   C309      1.0  0.75003  0.88012  0.78099  1.0000
  C   C310      1.0  0.74994  0.88783  0.79567  1.0000
  C   C311      1.0  0.74986  0.86625  0.80647  1.0000
  C   C312      1.0  0.74984  0.83687  0.80263  1.0000
  N   N78       1.0  0.74995  0.80718  0.73760  1.0000
  C   C313      1.0  0.75006  0.83703  0.73945  1.0000
  N   N79       1.0  0.75015  0.85172  0.75189  1.0000
  C   C314      1.0  0.75004  0.85078  0.72612  1.0000
  C   C315      1.0  0.74992  0.83013  0.71580  1.0000
  C   C316      1.0  0.74985  0.80347  0.72268  1.0000
  C   C317      1.0  0.74992  0.83679  0.70115  1.0000
  C   C318      1.0  0.75003  0.86617  0.69731  1.0000
  C   C319      1.0  0.75011  0.88776  0.70810  1.0000
  C   C320      1.0  0.75012  0.88007  0.72279  1.0000
  N   N80       1.0  0.74972  0.77858  0.71535  1.0000
  H   H73       1.0  0.74974  0.73516  0.69400  1.0000
  O   O73       1.0  0.74986  0.68430  0.68502  1.0000
  O   O74       1.0  0.75003  0.64478  0.70479  1.0000
  H   H74       1.0  0.75010  0.66278  0.73022  1.0000
  H   H75       1.0  0.75022  0.66281  0.77365  1.0000
  O   O75       1.0  0.75020  0.64488  0.79908  1.0000
  O   O76       1.0  0.75020  0.68444  0.81883  1.0000
  H   H76       1.0  0.75004  0.73528  0.80982  1.0000
  H   H77       1.0  0.75009  0.89444  0.77358  1.0000
  O   O77       1.0  0.74993  0.91244  0.79900  1.0000
  O   O78       1.0  0.74980  0.87294  0.81878  1.0000
  H   H78       1.0  0.74979  0.82208  0.80980  1.0000
  H   H79       1.0  0.74986  0.82198  0.69399  1.0000
  O   O79       1.0  0.75007  0.87284  0.68500  1.0000
  O   O80       1.0  0.75016  0.91237  0.70476  1.0000
  H   H80       1.0  0.75018  0.89439  0.73019  1.0000
  Ni  Ni10      1.0  0.74989  0.77861  0.75190  1.0000
  C   C321      1.0  0.39925  0.52816  0.03100  1.0000
  C   C322      1.0  0.39155  0.52810  0.04569  1.0000
  C   C323      1.0  0.41312  0.52801  0.05649  1.0000
  C   C324      1.0  0.44251  0.52798  0.05265  1.0000
  C   C325      1.0  0.44919  0.52803  0.03800  1.0000
  C   C326      1.0  0.42855  0.52814  0.02768  1.0000
  C   C327      1.0  0.44232  0.52818  0.01435  1.0000
  N   N81       1.0  0.47216  0.52810  0.01621  1.0000
  C   C328      1.0  0.47585  0.52801  0.03113  1.0000
  N   N82       1.0  0.50073  0.52789  0.03847  1.0000
  C   C329      1.0  0.52563  0.52792  0.03114  1.0000
  N   N83       1.0  0.52934  0.52801  0.01622  1.0000
  C   C330      1.0  0.55918  0.52806  0.01437  1.0000
  C   C331      1.0  0.57293  0.52798  0.02770  1.0000
  C   C332      1.0  0.55229  0.52790  0.03802  1.0000
  N   N84       1.0  0.52936  0.52806  0.98763  1.0000
  C   C333      1.0  0.55920  0.52815  0.98948  1.0000
  N   N85       1.0  0.57387  0.52819  0.00193  1.0000
  C   C334      1.0  0.57296  0.52810  0.97615  1.0000
  C   C335      1.0  0.55233  0.52798  0.96583  1.0000
  C   C336      1.0  0.52567  0.52794  0.97270  1.0000
  C   C337      1.0  0.55896  0.52786  0.05267  1.0000
  C   C338      1.0  0.58834  0.52788  0.05651  1.0000
  C   C339      1.0  0.60992  0.52790  0.04572  1.0000
  C   C340      1.0  0.60222  0.52797  0.03103  1.0000
  C   C341      1.0  0.55900  0.52793  0.95118  1.0000
  C   C342      1.0  0.58838  0.52802  0.94734  1.0000
  C   C343      1.0  0.60995  0.52812  0.95814  1.0000
  C   C344      1.0  0.60226  0.52816  0.97283  1.0000
  N   N86       1.0  0.47218  0.52801  0.98762  1.0000
  C   C345      1.0  0.47590  0.52789  0.97270  1.0000
  N   N87       1.0  0.50079  0.52780  0.96536  1.0000
  C   C346      1.0  0.44925  0.52789  0.96581  1.0000
  C   C347      1.0  0.42860  0.52801  0.97613  1.0000
  C   C348      1.0  0.44234  0.52810  0.98946  1.0000
  C   C349      1.0  0.39931  0.52800  0.97279  1.0000
  C   C350      1.0  0.39164  0.52787  0.95809  1.0000
  C   C351      1.0  0.41324  0.52780  0.94731  1.0000
  C   C352      1.0  0.44261  0.52780  0.95116  1.0000
  N   N88       1.0  0.42765  0.52824  0.00190  1.0000
  H   H81       1.0  0.38494  0.52822  0.02360  1.0000
  O   O81       1.0  0.36693  0.52811  0.04902  1.0000
  O   O82       1.0  0.40644  0.52798  0.06879  1.0000
  H   H82       1.0  0.45730  0.52791  0.05981  1.0000
  H   H83       1.0  0.54416  0.52783  0.05983  1.0000
  O   O83       1.0  0.59501  0.52787  0.06882  1.0000
  O   O84       1.0  0.63453  0.52787  0.04905  1.0000
  H   H84       1.0  0.61655  0.52801  0.02363  1.0000
  H   H85       1.0  0.54420  0.52786  0.94402  1.0000
  O   O85       1.0  0.59505  0.52803  0.93504  1.0000
  O   O86       1.0  0.63457  0.52818  0.95480  1.0000
  H   H86       1.0  0.61658  0.52822  0.98023  1.0000
  H   H87       1.0  0.38497  0.52806  0.98018  1.0000
  O   O87       1.0  0.36703  0.52782  0.95475  1.0000
  O   O88       1.0  0.40658  0.52773  0.93500  1.0000
  H   H88       1.0  0.45742  0.52773  0.94401  1.0000
  Ni  Ni11      1.0  0.50076  0.52809  0.00192  1.0000
  C   C353      1.0  0.89929  0.52960  0.53102  1.0000
  C   C354      1.0  0.89161  0.52953  0.54571  1.0000
  C   C355      1.0  0.91319  0.52944  0.55650  1.0000
  C   C356      1.0  0.94258  0.52941  0.55265  1.0000
  C   C357      1.0  0.94923  0.52947  0.53800  1.0000
  C   C358      1.0  0.92858  0.52958  0.52768  1.0000
  C   C359      1.0  0.94233  0.52962  0.51435  1.0000
  N   N89       1.0  0.97217  0.52954  0.51620  1.0000
  C   C360      1.0  0.97589  0.52944  0.53112  1.0000
  N   N90       1.0  0.00010  0.52933  0.53846  1.0000
  C   C361      1.0  0.02567  0.52935  0.53112  1.0000
  N   N91       1.0  0.02936  0.52945  0.51619  1.0000
  C   C362      1.0  0.05920  0.52950  0.51433  1.0000
  C   C363      1.0  0.07296  0.52941  0.52766  1.0000
  C   C364      1.0  0.05233  0.52933  0.53799  1.0000
  N   N92       1.0  0.02934  0.52951  0.48760  1.0000
  C   C365      1.0  0.05918  0.52960  0.48945  1.0000
  N   N93       1.0  0.07387  0.52964  0.50189  1.0000
  C   C366      1.0  0.07293  0.52956  0.47611  1.0000
  C   C367      1.0  0.05228  0.52944  0.46580  1.0000
  C   C368      1.0  0.02563  0.52940  0.47268  1.0000
  C   C369      1.0  0.05902  0.52929  0.55263  1.0000
  C   C370      1.0  0.08841  0.52930  0.55646  1.0000
  C   C371      1.0  0.10997  0.52933  0.54567  1.0000
  C   C372      1.0  0.10226  0.52941  0.53098  1.0000
  C   C373      1.0  0.05893  0.52940  0.45115  1.0000
  C   C374      1.0  0.08830  0.52949  0.44730  1.0000
  C   C375      1.0  0.10989  0.52959  0.45808  1.0000
  C   C376      1.0  0.10222  0.52962  0.47278  1.0000
  N   N94       1.0  0.97216  0.52947  0.48761  1.0000
  C   C377      1.0  0.97586  0.52935  0.47269  1.0000
  N   N95       1.0  0.00010  0.52927  0.46535  1.0000
  C   C378      1.0  0.94920  0.52935  0.46581  1.0000
  C   C379      1.0  0.92856  0.52947  0.47614  1.0000
  C   C380      1.0  0.94232  0.52956  0.48946  1.0000
  C   C381      1.0  0.89927  0.52946  0.47280  1.0000
  C   C382      1.0  0.89158  0.52934  0.45811  1.0000
  C   C383      1.0  0.91316  0.52927  0.44732  1.0000
  C   C384      1.0  0.94254  0.52927  0.45117  1.0000
  N   N96       1.0  0.92765  0.52969  0.50191  1.0000
  H   H89       1.0  0.88496  0.52966  0.52362  1.0000
  O   O89       1.0  0.86699  0.52954  0.54905  1.0000
  O   O90       1.0  0.90652  0.52940  0.56881  1.0000
  H   H90       1.0  0.95738  0.52934  0.55981  1.0000
  H   H91       1.0  0.04423  0.52926  0.55980  1.0000
  O   O91       1.0  0.09510  0.52929  0.56877  1.0000
  O   O92       1.0  0.13459  0.52929  0.54899  1.0000
  H   H92       1.0  0.11657  0.52944  0.52357  1.0000
  H   H93       1.0  0.04412  0.52933  0.44399  1.0000
  O   O93       1.0  0.09496  0.52951  0.43499  1.0000
  O   O94       1.0  0.13450  0.52965  0.45474  1.0000
  H   H94       1.0  0.11655  0.52967  0.48017  1.0000
  H   H95       1.0  0.88494  0.52952  0.48020  1.0000
  O   O95       1.0  0.86696  0.52929  0.45478  1.0000
  O   O96       1.0  0.90649  0.52921  0.43501  1.0000
  H   H96       1.0  0.95734  0.52921  0.44400  1.0000
  Ni  Ni12      1.0  0.00010  0.52954  0.50190  1.0000
  C   C385      1.0  0.22352  0.02863  0.40125  1.0000
  C   C386      1.0  0.20219  0.02863  0.39057  1.0000
  C   C387      1.0  0.17302  0.02853  0.39445  1.0000
  C   C388      1.0  0.16509  0.02843  0.40902  1.0000
  C   C389      1.0  0.18647  0.02843  0.41975  1.0000
  C   C390      1.0  0.21564  0.02853  0.41583  1.0000
  O   O97       1.0  0.25215  0.02873  0.39745  1.0000
  O   O98       1.0  0.20992  0.02873  0.37628  1.0000
  H   H97       1.0  0.15727  0.02853  0.38652  1.0000
  O   O99       1.0  0.13640  0.02833  0.41279  1.0000
  O   O100      1.0  0.17884  0.02833  0.43409  1.0000
  H   H98       1.0  0.23142  0.02853  0.42374  1.0000
  Cu  Cu1       1.0  0.13585  0.02822  0.43427  1.0000
  C   C391      1.0  0.25088  0.98009  0.64059  1.0000
  C   C392      1.0  0.25088  0.00144  0.65126  1.0000
  C   C393      1.0  0.25102  0.99365  0.66585  1.0000
  C   C394      1.0  0.25115  0.96450  0.66980  1.0000
  C   C395      1.0  0.25115  0.94306  0.65910  1.0000
  C   C396      1.0  0.25101  0.95093  0.64452  1.0000
  O   O101      1.0  0.25075  0.98773  0.62628  1.0000
  O   O102      1.0  0.25075  0.03003  0.64741  1.0000
  H   H99       1.0  0.25102  0.00949  0.67373  1.0000
  O   O103      1.0  0.25128  0.95695  0.68414  1.0000
  O   O104      1.0  0.25128  0.91438  0.66290  1.0000
  H   H100      1.0  0.25101  0.93512  0.63662  1.0000
  Cu  Cu2       1.0  0.25144  0.91399  0.68440  1.0000
  C   C397      1.0  0.29930  0.02872  0.89057  1.0000
  C   C398      1.0  0.27795  0.02872  0.90125  1.0000
  C   C399      1.0  0.28575  0.02882  0.91584  1.0000
  C   C400      1.0  0.31490  0.02891  0.91978  1.0000
  C   C401      1.0  0.33633  0.02891  0.90908  1.0000
  C   C402      1.0  0.32846  0.02881  0.89450  1.0000
  O   O105      1.0  0.29165  0.02862  0.87626  1.0000
  O   O106      1.0  0.24936  0.02862  0.89740  1.0000
  H   H101      1.0  0.26991  0.02882  0.92372  1.0000
  O   O107      1.0  0.32246  0.02901  0.93412  1.0000
  O   O108      1.0  0.36502  0.02901  0.91288  1.0000
  H   H102      1.0  0.34426  0.02881  0.88660  1.0000
  Cu  Cu3       1.0  0.36542  0.02912  0.93438  1.0000
  C   C403      1.0  0.25067  0.07720  0.14058  1.0000
  C   C404      1.0  0.25067  0.05585  0.15126  1.0000
  C   C405      1.0  0.25053  0.06364  0.16584  1.0000
  C   C406      1.0  0.25039  0.09280  0.16979  1.0000
  C   C407      1.0  0.25039  0.11423  0.15909  1.0000
  C   C408      1.0  0.25053  0.10636  0.14451  1.0000
  O   O109      1.0  0.25081  0.06955  0.12627  1.0000
  O   O110      1.0  0.25081  0.02726  0.14741  1.0000
  H   H103      1.0  0.25053  0.04781  0.17373  1.0000
  O   O111      1.0  0.25026  0.10036  0.18413  1.0000
  O   O112      1.0  0.25026  0.14292  0.16289  1.0000
  H   H104      1.0  0.25053  0.12217  0.13661  1.0000
  Cu  Cu4       1.0  0.25010  0.14331  0.18439  1.0000
  C   C409      1.0  0.22340  0.02851  0.60264  1.0000
  C   C410      1.0  0.20205  0.02851  0.61331  1.0000
  C   C411      1.0  0.17288  0.02838  0.60942  1.0000
  C   C412      1.0  0.16498  0.02825  0.59484  1.0000
  C   C413      1.0  0.18638  0.02824  0.58412  1.0000
  C   C414      1.0  0.21554  0.02837  0.58806  1.0000
  O   O113      1.0  0.25201  0.02864  0.60646  1.0000
  O   O114      1.0  0.20975  0.02864  0.62761  1.0000
  H   H105      1.0  0.15711  0.02838  0.61734  1.0000
  O   O115      1.0  0.13630  0.02812  0.59106  1.0000
  O   O116      1.0  0.17878  0.02811  0.56978  1.0000
  H   H106      1.0  0.23134  0.02837  0.58015  1.0000
  Cu  Cu5       1.0  0.13578  0.02796  0.56958  1.0000
  C   C415      1.0  0.25084  0.00126  0.85263  1.0000
  C   C416      1.0  0.25084  0.97991  0.86330  1.0000
  C   C417      1.0  0.25094  0.95074  0.85941  1.0000
  C   C418      1.0  0.25103  0.94284  0.84483  1.0000
  C   C419      1.0  0.25103  0.96423  0.83411  1.0000
  C   C420      1.0  0.25093  0.99340  0.83804  1.0000
  O   O117      1.0  0.25075  0.02988  0.85644  1.0000
  O   O118      1.0  0.25075  0.98762  0.87760  1.0000
  H   H107      1.0  0.25094  0.93498  0.86733  1.0000
  O   O119      1.0  0.25113  0.91416  0.84105  1.0000
  O   O120      1.0  0.25112  0.95663  0.81977  1.0000
  H   H108      1.0  0.25093  0.00920  0.83014  1.0000
  Cu  Cu6       1.0  0.25123  0.91363  0.81957  1.0000
  C   C421      1.0  0.27815  0.02879  0.10263  1.0000
  C   C422      1.0  0.29950  0.02879  0.11330  1.0000
  C   C423      1.0  0.32867  0.02892  0.10941  1.0000
  C   C424      1.0  0.33656  0.02906  0.09483  1.0000
  C   C425      1.0  0.31517  0.02906  0.08411  1.0000
  C   C426      1.0  0.28600  0.02892  0.08805  1.0000
  O   O121      1.0  0.24953  0.02865  0.10646  1.0000
  O   O122      1.0  0.29181  0.02865  0.12760  1.0000
  H   H109      1.0  0.34444  0.02892  0.11733  1.0000
  O   O123      1.0  0.36524  0.02919  0.09105  1.0000
  O   O124      1.0  0.32276  0.02919  0.06977  1.0000
  H   H110      1.0  0.27020  0.02892  0.08015  1.0000
  Cu  Cu7       1.0  0.36575  0.02935  0.06957  1.0000
  C   C427      1.0  0.25070  0.07738  0.36329  1.0000
  C   C428      1.0  0.25070  0.05602  0.35263  1.0000
  C   C429      1.0  0.25061  0.06378  0.33804  1.0000
  C   C430      1.0  0.25051  0.09293  0.33408  1.0000
  C   C431      1.0  0.25051  0.11438  0.34477  1.0000
  C   C432      1.0  0.25060  0.10654  0.35936  1.0000
  O   O125      1.0  0.25079  0.06977  0.37761  1.0000
  O   O126      1.0  0.25080  0.02743  0.35649  1.0000
  H   H111      1.0  0.25061  0.04793  0.33016  1.0000
  O   O127      1.0  0.25042  0.10046  0.31973  1.0000
  O   O128      1.0  0.25041  0.14307  0.34096  1.0000
  H   H112      1.0  0.25060  0.12236  0.36725  1.0000
  Cu  Cu8       1.0  0.25030  0.14342  0.31946  1.0000
  C   C433      1.0  0.77800  0.02839  0.60257  1.0000
  C   C434      1.0  0.79933  0.02839  0.61325  1.0000
  C   C435      1.0  0.82850  0.02832  0.60937  1.0000
  C   C436      1.0  0.83642  0.02824  0.59479  1.0000
  C   C437      1.0  0.81505  0.02824  0.58407  1.0000
  C   C438      1.0  0.78587  0.02831  0.58799  1.0000
  O   O129      1.0  0.74937  0.02847  0.60638  1.0000
  O   O130      1.0  0.79161  0.02847  0.62755  1.0000
  H   H113      1.0  0.84426  0.02832  0.61729  1.0000
  O   O131      1.0  0.86511  0.02817  0.59103  1.0000
  O   O132      1.0  0.82266  0.02816  0.56973  1.0000
  H   H114      1.0  0.77009  0.02831  0.58008  1.0000
  Cu  Cu9       1.0  0.86566  0.02807  0.56955  1.0000
  C   C439      1.0  0.75103  0.07723  0.36322  1.0000
  C   C440      1.0  0.75102  0.05588  0.35254  1.0000
  C   C441      1.0  0.75115  0.06367  0.33796  1.0000
  C   C442      1.0  0.75127  0.09282  0.33401  1.0000
  C   C443      1.0  0.75127  0.11426  0.34471  1.0000
  C   C444      1.0  0.75115  0.10640  0.35929  1.0000
  O   O133      1.0  0.75091  0.06960  0.37753  1.0000
  O   O134      1.0  0.75090  0.02729  0.35640  1.0000
  H   H115      1.0  0.75114  0.04783  0.33008  1.0000
  O   O135      1.0  0.75139  0.10038  0.31967  1.0000
  O   O136      1.0  0.75139  0.14295  0.34091  1.0000
  H   H116      1.0  0.75115  0.12220  0.36719  1.0000
  Cu  Cu10      1.0  0.75153  0.14333  0.31941  1.0000
  C   C445      1.0  0.70223  0.02889  0.11320  1.0000
  C   C446      1.0  0.72358  0.02888  0.10252  1.0000
  C   C447      1.0  0.71580  0.02897  0.08794  1.0000
  C   C448      1.0  0.68665  0.02905  0.08399  1.0000
  C   C449      1.0  0.66521  0.02905  0.09468  1.0000
  C   C450      1.0  0.67307  0.02897  0.10927  1.0000
  O   O137      1.0  0.70986  0.02881  0.12751  1.0000
  O   O138      1.0  0.75217  0.02880  0.10638  1.0000
  H   H117      1.0  0.73164  0.02896  0.08006  1.0000
  O   O139      1.0  0.67910  0.02913  0.06964  1.0000
  O   O140      1.0  0.63652  0.02913  0.09088  1.0000
  H   H118      1.0  0.65726  0.02897  0.11716  1.0000
  Cu  Cu11      1.0  0.63614  0.02922  0.06938  1.0000
  C   C451      1.0  0.75051  0.98011  0.86321  1.0000
  C   C452      1.0  0.75051  0.00145  0.85253  1.0000
  C   C453      1.0  0.75039  0.99367  0.83795  1.0000
  C   C454      1.0  0.75027  0.96451  0.83400  1.0000
  C   C455      1.0  0.75027  0.94308  0.84470  1.0000
  C   C456      1.0  0.75039  0.95094  0.85928  1.0000
  O   O141      1.0  0.75063  0.98775  0.87752  1.0000
  O   O142      1.0  0.75064  0.03005  0.85639  1.0000
  H   H119      1.0  0.75040  0.00950  0.83007  1.0000
  O   O143      1.0  0.75015  0.95696  0.81966  1.0000
  O   O144      1.0  0.75015  0.91439  0.84090  1.0000
  H   H120      1.0  0.75039  0.93514  0.86718  1.0000
  Cu  Cu12      1.0  0.75000  0.91400  0.81940  1.0000
  C   C457      1.0  0.77815  0.02845  0.40117  1.0000
  C   C458      1.0  0.79950  0.02845  0.39049  1.0000
  C   C459      1.0  0.82867  0.02832  0.39438  1.0000
  C   C460      1.0  0.83657  0.02820  0.40896  1.0000
  C   C461      1.0  0.81518  0.02820  0.41968  1.0000
  C   C462      1.0  0.78601  0.02832  0.41575  1.0000
  O   O145      1.0  0.74953  0.02857  0.39735  1.0000
  O   O146      1.0  0.79179  0.02857  0.37620  1.0000
  H   H121      1.0  0.84443  0.02832  0.38646  1.0000
  O   O147      1.0  0.86526  0.02807  0.41274  1.0000
  O   O148      1.0  0.82278  0.02807  0.43403  1.0000
  H   H122      1.0  0.77022  0.02832  0.42366  1.0000
  Cu  Cu13      1.0  0.86578  0.02792  0.43421  1.0000
  C   C463      1.0  0.75096  0.05605  0.15115  1.0000
  C   C464      1.0  0.75096  0.07740  0.14047  1.0000
  C   C465      1.0  0.75105  0.10657  0.14436  1.0000
  C   C466      1.0  0.75114  0.11447  0.15894  1.0000
  C   C467      1.0  0.75114  0.09308  0.16966  1.0000
  C   C468      1.0  0.75105  0.06391  0.16573  1.0000
  O   O149      1.0  0.75088  0.02743  0.14733  1.0000
  O   O150      1.0  0.75088  0.06969  0.12618  1.0000
  H   H123      1.0  0.75105  0.12233  0.13644  1.0000
  O   O151      1.0  0.75122  0.14316  0.16272  1.0000
  O   O152      1.0  0.75122  0.10068  0.18400  1.0000
  H   H124      1.0  0.75105  0.04811  0.17363  1.0000
  Cu  Cu14      1.0  0.75132  0.14368  0.18420  1.0000
  C   C469      1.0  0.72338  0.02889  0.90116  1.0000
  C   C470      1.0  0.70204  0.02889  0.89048  1.0000
  C   C471      1.0  0.67287  0.02902  0.89437  1.0000
  C   C472      1.0  0.66497  0.02914  0.90895  1.0000
  C   C473      1.0  0.68635  0.02914  0.91967  1.0000
  C   C474      1.0  0.71552  0.02902  0.91574  1.0000
  O   O153      1.0  0.75200  0.02877  0.89734  1.0000
  O   O154      1.0  0.70975  0.02877  0.87619  1.0000
  H   H125      1.0  0.65711  0.02902  0.88645  1.0000
  O   O155      1.0  0.63628  0.02926  0.91273  1.0000
  O   O156      1.0  0.67875  0.02927  0.93401  1.0000
  H   H126      1.0  0.73132  0.02902  0.92365  1.0000
  Cu  Cu15      1.0  0.63576  0.02941  0.93420  1.0000
  C   C475      1.0  0.75055  0.97993  0.64053  1.0000
  C   C476      1.0  0.75054  0.00129  0.65119  1.0000
  C   C477      1.0  0.75046  0.99353  0.66578  1.0000
  C   C478      1.0  0.75038  0.96438  0.66974  1.0000
  C   C479      1.0  0.75038  0.94293  0.65905  1.0000
  C   C480      1.0  0.75047  0.95077  0.64447  1.0000
  O   O157      1.0  0.75063  0.98755  0.62621  1.0000
  O   O158      1.0  0.75062  0.02988  0.64733  1.0000
  H   H127      1.0  0.75046  0.00938  0.67366  1.0000
  O   O159      1.0  0.75030  0.95685  0.68409  1.0000
  O   O160      1.0  0.75031  0.91425  0.66286  1.0000
  H   H128      1.0  0.75047  0.93495  0.63657  1.0000
  Cu  Cu16      1.0  0.75021  0.91390  0.68436  1.0000
  C   C481      1.0  0.72354  0.52862  0.90127  1.0000
  C   C482      1.0  0.70222  0.52861  0.89059  1.0000
  C   C483      1.0  0.67304  0.52852  0.89446  1.0000
  C   C484      1.0  0.66511  0.52842  0.90904  1.0000
  C   C485      1.0  0.68648  0.52842  0.91977  1.0000
  C   C486      1.0  0.71565  0.52852  0.91585  1.0000
  O   O161      1.0  0.75217  0.52871  0.89747  1.0000
  O   O162      1.0  0.70995  0.52871  0.87629  1.0000
  H   H129      1.0  0.65729  0.52852  0.88654  1.0000
  O   O163      1.0  0.63642  0.52833  0.91280  1.0000
  O   O164      1.0  0.67885  0.52833  0.93411  1.0000
  H   H130      1.0  0.73143  0.52852  0.92376  1.0000
  Cu  Cu17      1.0  0.63585  0.52822  0.93428  1.0000
  C   C487      1.0  0.75088  0.48019  0.14060  1.0000
  C   C488      1.0  0.75088  0.50153  0.15128  1.0000
  C   C489      1.0  0.75101  0.49374  0.16586  1.0000
  C   C490      1.0  0.75115  0.46459  0.16981  1.0000
  C   C491      1.0  0.75115  0.44315  0.15911  1.0000
  C   C492      1.0  0.75101  0.45102  0.14453  1.0000
  O   O165      1.0  0.75074  0.48783  0.12629  1.0000
  O   O166      1.0  0.75074  0.53013  0.14743  1.0000
  H   H131      1.0  0.75101  0.50958  0.17375  1.0000
  O   O167      1.0  0.75129  0.45703  0.18415  1.0000
  O   O168      1.0  0.75128  0.41446  0.16291  1.0000
  H   H132      1.0  0.75101  0.43522  0.13663  1.0000
  Cu  Cu18      1.0  0.75144  0.41407  0.18441  1.0000
  C   C493      1.0  0.79927  0.52872  0.39059  1.0000
  C   C494      1.0  0.77793  0.52872  0.40127  1.0000
  C   C495      1.0  0.78573  0.52882  0.41585  1.0000
  C   C496      1.0  0.81488  0.52892  0.41980  1.0000
  C   C497      1.0  0.83631  0.52892  0.40910  1.0000
  C   C498      1.0  0.82843  0.52882  0.39451  1.0000
  O   O169      1.0  0.79162  0.52863  0.37628  1.0000
  O   O170      1.0  0.74933  0.52862  0.39742  1.0000
  H   H133      1.0  0.76990  0.52882  0.42374  1.0000
  O   O171      1.0  0.82245  0.52902  0.43414  1.0000
  O   O172      1.0  0.86500  0.52902  0.41289  1.0000
  H   H134      1.0  0.84423  0.52882  0.38661  1.0000
  Cu  Cu19      1.0  0.86540  0.52914  0.43439  1.0000
  C   C499      1.0  0.75068  0.57710  0.64060  1.0000
  C   C500      1.0  0.75068  0.55576  0.65127  1.0000
  C   C501      1.0  0.75054  0.56355  0.66586  1.0000
  C   C502      1.0  0.75041  0.59271  0.66980  1.0000
  C   C503      1.0  0.75040  0.61414  0.65910  1.0000
  C   C504      1.0  0.75054  0.60627  0.64452  1.0000
  O   O173      1.0  0.75081  0.56945  0.62629  1.0000
  O   O174      1.0  0.75082  0.52716  0.64742  1.0000
  H   H135      1.0  0.75055  0.54772  0.67374  1.0000
  O   O175      1.0  0.75027  0.60027  0.68414  1.0000
  O   O176      1.0  0.75027  0.64283  0.66290  1.0000
  H   H136      1.0  0.75054  0.62207  0.63662  1.0000
  Cu  Cu20      1.0  0.75011  0.64323  0.68440  1.0000
  C   C505      1.0  0.72339  0.52860  0.10265  1.0000
  C   C506      1.0  0.70204  0.52860  0.11332  1.0000
  C   C507      1.0  0.67287  0.52846  0.10943  1.0000
  C   C508      1.0  0.66498  0.52832  0.09485  1.0000
  C   C509      1.0  0.68637  0.52832  0.08413  1.0000
  C   C510      1.0  0.71554  0.52846  0.08807  1.0000
  O   O177      1.0  0.75200  0.52873  0.10647  1.0000
  O   O178      1.0  0.70973  0.52873  0.12762  1.0000
  H   H137      1.0  0.65710  0.52846  0.11735  1.0000
  O   O179      1.0  0.63629  0.52819  0.09107  1.0000
  O   O180      1.0  0.67878  0.52819  0.06979  1.0000
  H   H138      1.0  0.73134  0.52846  0.08017  1.0000
  Cu  Cu21      1.0  0.63578  0.52803  0.06959  1.0000
  C   C511      1.0  0.75082  0.50128  0.35264  1.0000
  C   C512      1.0  0.75082  0.47992  0.36331  1.0000
  C   C513      1.0  0.75092  0.45076  0.35942  1.0000
  C   C514      1.0  0.75102  0.44286  0.34484  1.0000
  C   C515      1.0  0.75102  0.46426  0.33412  1.0000
  C   C516      1.0  0.75092  0.49343  0.33806  1.0000
  O   O181      1.0  0.75072  0.52990  0.35647  1.0000
  O   O182      1.0  0.75072  0.48762  0.37761  1.0000
  H   H139      1.0  0.75092  0.43498  0.36733  1.0000
  O   O183      1.0  0.75112  0.41418  0.34106  1.0000
  O   O184      1.0  0.75112  0.45667  0.31978  1.0000
  H   H140      1.0  0.75092  0.50923  0.33016  1.0000
  Cu  Cu22      1.0  0.75123  0.41367  0.31958  1.0000
  C   C517      1.0  0.77816  0.52870  0.60265  1.0000
  C   C518      1.0  0.79951  0.52870  0.61332  1.0000
  C   C519      1.0  0.82868  0.52885  0.60942  1.0000
  C   C520      1.0  0.83657  0.52899  0.59484  1.0000
  C   C521      1.0  0.81517  0.52899  0.58413  1.0000
  C   C522      1.0  0.78601  0.52884  0.58807  1.0000
  O   O185      1.0  0.74954  0.52856  0.60647  1.0000
  O   O186      1.0  0.79182  0.52856  0.62762  1.0000
  H   H141      1.0  0.84445  0.52885  0.61734  1.0000
  O   O187      1.0  0.86525  0.52913  0.59106  1.0000
  O   O188      1.0  0.82276  0.52913  0.56978  1.0000
  H   H142      1.0  0.77020  0.52884  0.58016  1.0000
  Cu  Cu23      1.0  0.86576  0.52930  0.56958  1.0000
  C   C523      1.0  0.75072  0.57736  0.86331  1.0000
  C   C524      1.0  0.75072  0.55599  0.85265  1.0000
  C   C525      1.0  0.75062  0.56375  0.83806  1.0000
  C   C526      1.0  0.75053  0.59289  0.83410  1.0000
  C   C527      1.0  0.75052  0.61435  0.84478  1.0000
  C   C528      1.0  0.75062  0.60651  0.85937  1.0000
  O   O189      1.0  0.75081  0.56974  0.87763  1.0000
  O   O190      1.0  0.75082  0.52740  0.85651  1.0000
  H   H143      1.0  0.75062  0.54789  0.83018  1.0000
  O   O191      1.0  0.75043  0.60042  0.81975  1.0000
  O   O192      1.0  0.75043  0.64303  0.84097  1.0000
  H   H144      1.0  0.75062  0.62233  0.86726  1.0000
  Cu  Cu24      1.0  0.75031  0.64338  0.81947  1.0000
  C   C529      1.0  0.27800  0.52849  0.10258  1.0000
  C   C530      1.0  0.29934  0.52849  0.11326  1.0000
  C   C531      1.0  0.32851  0.52840  0.10938  1.0000
  C   C532      1.0  0.33642  0.52832  0.09480  1.0000
  C   C533      1.0  0.31505  0.52832  0.08408  1.0000
  C   C534      1.0  0.28587  0.52840  0.08800  1.0000
  O   O193      1.0  0.24938  0.52857  0.10639  1.0000
  O   O194      1.0  0.29162  0.52857  0.12756  1.0000
  H   H145      1.0  0.34427  0.52840  0.11730  1.0000
  O   O195      1.0  0.36511  0.52824  0.09103  1.0000
  O   O196      1.0  0.32266  0.52824  0.06973  1.0000
  H   H146      1.0  0.27008  0.52840  0.08009  1.0000
  Cu  Cu25      1.0  0.36566  0.52814  0.06955  1.0000
  C   C535      1.0  0.25101  0.57719  0.86323  1.0000
  C   C536      1.0  0.25101  0.55584  0.85255  1.0000
  C   C537      1.0  0.25113  0.56362  0.83797  1.0000
  C   C538      1.0  0.25126  0.59278  0.83402  1.0000
  C   C539      1.0  0.25126  0.61421  0.84472  1.0000
  C   C540      1.0  0.25114  0.60635  0.85930  1.0000
  O   O197      1.0  0.25090  0.56955  0.87754  1.0000
  O   O198      1.0  0.25089  0.52724  0.85641  1.0000
  H   H147      1.0  0.25113  0.54778  0.83009  1.0000
  O   O199      1.0  0.25137  0.60033  0.81968  1.0000
  O   O200      1.0  0.25138  0.64290  0.84092  1.0000
  H   H148      1.0  0.25114  0.62216  0.86720  1.0000
  Cu  Cu26      1.0  0.25152  0.64328  0.81942  1.0000
  C   C541      1.0  0.20223  0.52881  0.61321  1.0000
  C   C542      1.0  0.22358  0.52880  0.60253  1.0000
  C   C543      1.0  0.21580  0.52889  0.58795  1.0000
  C   C544      1.0  0.18665  0.52899  0.58400  1.0000
  C   C545      1.0  0.16521  0.52899  0.59469  1.0000
  C   C546      1.0  0.17307  0.52890  0.60927  1.0000
  O   O201      1.0  0.20986  0.52872  0.62752  1.0000
  O   O202      1.0  0.25217  0.52871  0.60639  1.0000
  H   H149      1.0  0.23164  0.52889  0.58007  1.0000
  O   O203      1.0  0.17910  0.52908  0.56965  1.0000
  O   O204      1.0  0.13652  0.52908  0.59089  1.0000
  H   H150      1.0  0.15726  0.52890  0.61717  1.0000
  Cu  Cu27      1.0  0.13615  0.52919  0.56939  1.0000
  C   C547      1.0  0.25053  0.48013  0.36322  1.0000
  C   C548      1.0  0.25053  0.50149  0.35255  1.0000
  C   C549      1.0  0.25041  0.49370  0.33796  1.0000
  C   C550      1.0  0.25028  0.46455  0.33401  1.0000
  C   C551      1.0  0.25028  0.44311  0.34470  1.0000
  C   C552      1.0  0.25041  0.45097  0.35929  1.0000
  O   O205      1.0  0.25065  0.48777  0.37753  1.0000
  O   O206      1.0  0.25066  0.53008  0.35640  1.0000
  H   H151      1.0  0.25041  0.50954  0.33008  1.0000
  O   O207      1.0  0.25016  0.45700  0.31967  1.0000
  O   O208      1.0  0.25016  0.41442  0.34090  1.0000
  H   H152      1.0  0.25041  0.43516  0.36719  1.0000
  Cu  Cu28      1.0  0.25001  0.41404  0.31940  1.0000
  C   C553      1.0  0.27815  0.52842  0.90118  1.0000
  C   C554      1.0  0.29949  0.52841  0.89050  1.0000
  C   C555      1.0  0.32866  0.52829  0.89439  1.0000
  C   C556      1.0  0.33657  0.52817  0.90897  1.0000
  C   C557      1.0  0.31518  0.52818  0.91969  1.0000
  C   C558      1.0  0.28601  0.52830  0.91576  1.0000
  O   O209      1.0  0.24953  0.52854  0.89736  1.0000
  O   O210      1.0  0.29178  0.52853  0.87621  1.0000
  H   H153      1.0  0.34442  0.52829  0.88647  1.0000
  O   O211      1.0  0.36525  0.52805  0.91274  1.0000
  O   O212      1.0  0.32279  0.52806  0.93403  1.0000
  H   H154      1.0  0.27022  0.52830  0.92367  1.0000
  Cu  Cu29      1.0  0.36578  0.52791  0.93422  1.0000
  C   C559      1.0  0.25096  0.55596  0.65116  1.0000
  C   C560      1.0  0.25096  0.57731  0.64048  1.0000
  C   C561      1.0  0.25105  0.60648  0.64437  1.0000
  C   C562      1.0  0.25113  0.61438  0.65895  1.0000
  C   C563      1.0  0.25113  0.59300  0.66967  1.0000
  C   C564      1.0  0.25104  0.56382  0.66574  1.0000
  O   O213      1.0  0.25088  0.52734  0.64734  1.0000
  O   O214      1.0  0.25088  0.56960  0.62619  1.0000
  H   H155      1.0  0.25105  0.62224  0.63645  1.0000
  O   O215      1.0  0.25121  0.64307  0.66273  1.0000
  O   O216      1.0  0.25121  0.60060  0.68402  1.0000
  H   H156      1.0  0.25104  0.54803  0.67365  1.0000
  Cu  Cu30      1.0  0.25131  0.64360  0.68420  1.0000
  C   C565      1.0  0.22340  0.52892  0.40117  1.0000
  C   C566      1.0  0.20206  0.52892  0.39050  1.0000
  C   C567      1.0  0.17289  0.52904  0.39438  1.0000
  C   C568      1.0  0.16498  0.52917  0.40896  1.0000
  C   C569      1.0  0.18636  0.52917  0.41968  1.0000
  C   C570      1.0  0.21553  0.52904  0.41575  1.0000
  O   O217      1.0  0.25202  0.52879  0.39736  1.0000
  O   O218      1.0  0.20977  0.52879  0.37620  1.0000
  H   H157      1.0  0.15713  0.52904  0.38646  1.0000
  O   O219      1.0  0.13629  0.52929  0.41273  1.0000
  O   O220      1.0  0.17876  0.52929  0.43403  1.0000
  H   H158      1.0  0.23133  0.52904  0.42366  1.0000
  Cu  Cu31      1.0  0.13576  0.52944  0.43421  1.0000
  C   C571      1.0  0.25055  0.48003  0.14054  1.0000
  C   C572      1.0  0.25054  0.50139  0.15121  1.0000
  C   C573      1.0  0.25046  0.49362  0.16579  1.0000
  C   C574      1.0  0.25038  0.46447  0.16975  1.0000
  C   C575      1.0  0.25038  0.44302  0.15906  1.0000
  C   C576      1.0  0.25047  0.45087  0.14448  1.0000
  O   O221      1.0  0.25063  0.48765  0.12623  1.0000
  O   O222      1.0  0.25062  0.52998  0.14735  1.0000
  H   H159      1.0  0.25046  0.50947  0.17367  1.0000
  O   O223      1.0  0.25030  0.45694  0.18410  1.0000
  O   O224      1.0  0.25031  0.41434  0.16287  1.0000
  H   H160      1.0  0.25047  0.43505  0.13658  1.0000
  Cu  Cu32      1.0  0.25021  0.41398  0.18437  1.0000
  C   C577      1.0  0.20226  0.00130  0.12685  1.0000
  C   C578      1.0  0.22361  0.97995  0.12685  1.0000
  C   C579      1.0  0.21582  0.95078  0.12680  1.0000
  C   C580      1.0  0.18666  0.94289  0.12675  1.0000
  C   C581      1.0  0.16523  0.96428  0.12675  1.0000
  C   C582      1.0  0.17310  0.99345  0.12681  1.0000
  O   O225      1.0  0.20991  0.02992  0.12690  1.0000
  O   O226      1.0  0.25220  0.98765  0.12690  1.0000
  H   H161      1.0  0.23165  0.93501  0.12680  1.0000
  O   O227      1.0  0.17911  0.91421  0.12671  1.0000
  O   O228      1.0  0.13654  0.95669  0.12671  1.0000
  H   H162      1.0  0.15730  0.00925  0.12681  1.0000
  Cu  Cu33      1.0  0.13615  0.91369  0.12665  1.0000
  C   C583      1.0  0.29945  0.00145  0.37686  1.0000
  C   C584      1.0  0.27808  0.98012  0.37686  1.0000
  C   C585      1.0  0.28584  0.95095  0.37678  1.0000
  C   C586      1.0  0.31499  0.94302  0.37671  1.0000
  C   C587      1.0  0.33644  0.96439  0.37671  1.0000
  C   C588      1.0  0.32860  0.99357  0.37679  1.0000
  O   O229      1.0  0.29184  0.03008  0.37693  1.0000
  O   O230      1.0  0.24950  0.98786  0.37693  1.0000
  H   H163      1.0  0.26999  0.93520  0.37678  1.0000
  O   O231      1.0  0.32251  0.91433  0.37664  1.0000
  O   O232      1.0  0.36512  0.95676  0.37664  1.0000
  H   H164      1.0  0.34443  0.00935  0.37679  1.0000
  Cu  Cu34      1.0  0.36546  0.91377  0.37656  1.0000
  C   C589      1.0  0.29930  0.05599  0.62686  1.0000
  C   C590      1.0  0.27795  0.07734  0.62686  1.0000
  C   C591      1.0  0.28574  0.10651  0.62681  1.0000
  C   C592      1.0  0.31490  0.11441  0.62676  1.0000
  C   C593      1.0  0.33633  0.09301  0.62676  1.0000
  C   C594      1.0  0.32846  0.06384  0.62681  1.0000
  O   O233      1.0  0.29165  0.02737  0.62691  1.0000
  O   O234      1.0  0.24936  0.06964  0.62691  1.0000
  H   H165      1.0  0.26991  0.12228  0.62681  1.0000
  O   O235      1.0  0.32246  0.14309  0.62671  1.0000
  O   O236      1.0  0.36502  0.10060  0.62671  1.0000
  H   H166      1.0  0.34426  0.04804  0.62681  1.0000
  Cu  Cu35      1.0  0.36541  0.14360  0.62665  1.0000
  C   C595      1.0  0.22339  0.07717  0.87683  1.0000
  C   C596      1.0  0.20204  0.05583  0.87683  1.0000
  C   C597      1.0  0.17288  0.06362  0.87677  1.0000
  C   C598      1.0  0.16498  0.09277  0.87670  1.0000
  C   C599      1.0  0.18638  0.11421  0.87670  1.0000
  C   C600      1.0  0.21555  0.10633  0.87676  1.0000
  O   O237      1.0  0.25201  0.06952  0.87690  1.0000
  O   O238      1.0  0.20974  0.02723  0.87690  1.0000
  H   H167      1.0  0.15711  0.04778  0.87677  1.0000
  O   O239      1.0  0.13630  0.10033  0.87663  1.0000
  O   O240      1.0  0.17879  0.14289  0.87663  1.0000
  H   H168      1.0  0.23135  0.12214  0.87676  1.0000
  Cu  Cu36      1.0  0.13579  0.14329  0.87655  1.0000
  C   C601      1.0  0.79929  0.05602  0.87680  1.0000
  C   C602      1.0  0.77794  0.07736  0.87680  1.0000
  C   C603      1.0  0.78572  0.10653  0.87676  1.0000
  C   C604      1.0  0.81488  0.11443  0.87672  1.0000
  C   C605      1.0  0.83632  0.09304  0.87673  1.0000
  C   C606      1.0  0.82845  0.06387  0.87676  1.0000
  O   O241      1.0  0.79166  0.02739  0.87683  1.0000
  O   O242      1.0  0.74935  0.06965  0.87683  1.0000
  H   H169      1.0  0.76989  0.12230  0.87676  1.0000
  O   O243      1.0  0.82243  0.14312  0.87669  1.0000
  O   O244      1.0  0.86500  0.10064  0.87669  1.0000
  H   H170      1.0  0.84426  0.04808  0.87676  1.0000
  Cu  Cu37      1.0  0.86538  0.14364  0.87665  1.0000
  C   C607      1.0  0.70208  0.05584  0.62678  1.0000
  C   C608      1.0  0.72344  0.07718  0.62678  1.0000
  C   C609      1.0  0.71567  0.10635  0.62672  1.0000
  C   C610      1.0  0.68652  0.11427  0.62666  1.0000
  C   C611      1.0  0.66507  0.09289  0.62666  1.0000
  C   C612      1.0  0.67292  0.06371  0.62672  1.0000
  O   O245      1.0  0.70971  0.02722  0.62683  1.0000
  O   O246      1.0  0.75203  0.06946  0.62684  1.0000
  H   H171      1.0  0.73151  0.12211  0.62672  1.0000
  O   O247      1.0  0.67898  0.14295  0.62660  1.0000
  O   O248      1.0  0.63639  0.10050  0.62660  1.0000
  H   H172      1.0  0.65711  0.04792  0.62672  1.0000
  Cu  Cu38      1.0  0.63603  0.14350  0.62653  1.0000
  C   C613      1.0  0.70224  0.00132  0.37680  1.0000
  C   C614      1.0  0.72359  0.97998  0.37680  1.0000
  C   C615      1.0  0.71581  0.95081  0.37676  1.0000
  C   C616      1.0  0.68666  0.94290  0.37673  1.0000
  C   C617      1.0  0.66522  0.96429  0.37673  1.0000
  C   C618      1.0  0.67308  0.99346  0.37676  1.0000
  O   O249      1.0  0.70988  0.02995  0.37684  1.0000
  O   O250      1.0  0.75218  0.98769  0.37684  1.0000
  H   H173      1.0  0.73165  0.93504  0.37676  1.0000
  O   O251      1.0  0.67911  0.91422  0.37669  1.0000
  O   O252      1.0  0.63653  0.95669  0.37669  1.0000
  H   H174      1.0  0.65727  0.00926  0.37676  1.0000
  Cu  Cu39      1.0  0.63616  0.91369  0.37664  1.0000
  C   C619      1.0  0.77812  0.98015  0.12676  1.0000
  C   C620      1.0  0.79947  0.00149  0.12676  1.0000
  C   C621      1.0  0.82864  0.99371  0.12671  1.0000
  C   C622      1.0  0.83654  0.96456  0.12665  1.0000
  C   C623      1.0  0.81515  0.94312  0.12665  1.0000
  C   C624      1.0  0.78598  0.95098  0.12671  1.0000
  O   O253      1.0  0.74950  0.98779  0.12682  1.0000
  O   O254      1.0  0.79176  0.03009  0.12682  1.0000
  H   H175      1.0  0.84440  0.00955  0.12671  1.0000
  O   O255      1.0  0.86522  0.95700  0.12659  1.0000
  O   O256      1.0  0.82274  0.91443  0.12659  1.0000
  H   H176      1.0  0.77018  0.93518  0.12670  1.0000
  Cu  Cu40      1.0  0.86574  0.91405  0.12653  1.0000
  C   C625      1.0  0.70228  0.50120  0.62687  1.0000
  C   C626      1.0  0.72362  0.47985  0.62687  1.0000
  C   C627      1.0  0.71583  0.45068  0.62682  1.0000
  C   C628      1.0  0.68667  0.44279  0.62676  1.0000
  C   C629      1.0  0.66524  0.46418  0.62677  1.0000
  C   C630      1.0  0.67311  0.49335  0.62682  1.0000
  O   O257      1.0  0.70992  0.52982  0.62692  1.0000
  O   O258      1.0  0.75221  0.48755  0.62692  1.0000
  H   H177      1.0  0.73166  0.43491  0.62681  1.0000
  O   O259      1.0  0.67911  0.41411  0.62671  1.0000
  O   O260      1.0  0.63655  0.45659  0.62672  1.0000
  H   H178      1.0  0.65731  0.50915  0.62682  1.0000
  Cu  Cu41      1.0  0.63616  0.41360  0.62665  1.0000
  C   C631      1.0  0.79948  0.50143  0.87688  1.0000
  C   C632      1.0  0.77811  0.48010  0.87688  1.0000
  C   C633      1.0  0.78587  0.45093  0.87680  1.0000
  C   C634      1.0  0.81502  0.44301  0.87673  1.0000
  C   C635      1.0  0.83647  0.46438  0.87673  1.0000
  C   C636      1.0  0.82863  0.49356  0.87680  1.0000
  O   O261      1.0  0.79186  0.53006  0.87694  1.0000
  O   O262      1.0  0.74953  0.48783  0.87695  1.0000
  H   H179      1.0  0.77003  0.43517  0.87680  1.0000
  O   O263      1.0  0.82255  0.41432  0.87666  1.0000
  O   O264      1.0  0.86515  0.45676  0.87666  1.0000
  H   H180      1.0  0.84445  0.50934  0.87680  1.0000
  Cu  Cu42      1.0  0.86551  0.41376  0.87658  1.0000
  C   C637      1.0  0.79929  0.55609  0.12687  1.0000
  C   C638      1.0  0.77794  0.57744  0.12687  1.0000
  C   C639      1.0  0.78574  0.60661  0.12682  1.0000
  C   C640      1.0  0.81489  0.61450  0.12677  1.0000
  C   C641      1.0  0.83632  0.59311  0.12677  1.0000
  C   C642      1.0  0.82845  0.56394  0.12682  1.0000
  O   O265      1.0  0.79164  0.52747  0.12692  1.0000
  O   O266      1.0  0.74935  0.56974  0.12692  1.0000
  H   H181      1.0  0.76990  0.62238  0.12682  1.0000
  O   O267      1.0  0.82245  0.64319  0.12672  1.0000
  O   O268      1.0  0.86501  0.60070  0.12672  1.0000
  H   H182      1.0  0.84425  0.54814  0.12682  1.0000
  Cu  Cu43      1.0  0.86540  0.64370  0.12666  1.0000
  C   C643      1.0  0.72336  0.57718  0.37685  1.0000
  C   C644      1.0  0.70201  0.55583  0.37685  1.0000
  C   C645      1.0  0.67284  0.56362  0.37678  1.0000
  C   C646      1.0  0.66495  0.59278  0.37671  1.0000
  C   C647      1.0  0.68634  0.61421  0.37671  1.0000
  C   C648      1.0  0.71551  0.60634  0.37678  1.0000
  O   O269      1.0  0.75198  0.56953  0.37692  1.0000
  O   O270      1.0  0.70971  0.52724  0.37692  1.0000
  H   H183      1.0  0.65707  0.54778  0.37678  1.0000
  O   O271      1.0  0.63626  0.60033  0.37664  1.0000
  O   O272      1.0  0.67875  0.64290  0.37664  1.0000
  H   H184      1.0  0.73131  0.62215  0.37678  1.0000
  Cu  Cu44      1.0  0.63575  0.64329  0.37655  1.0000
  C   C649      1.0  0.29932  0.55605  0.37681  1.0000
  C   C650      1.0  0.27797  0.57739  0.37681  1.0000
  C   C651      1.0  0.28575  0.60656  0.37677  1.0000
  C   C652      1.0  0.31491  0.61446  0.37673  1.0000
  C   C653      1.0  0.33634  0.59307  0.37673  1.0000
  C   C654      1.0  0.32848  0.56390  0.37677  1.0000
  O   O273      1.0  0.29168  0.52742  0.37684  1.0000
  O   O274      1.0  0.24938  0.56968  0.37684  1.0000
  H   H185      1.0  0.26991  0.62233  0.37677  1.0000
  O   O275      1.0  0.32246  0.64315  0.37669  1.0000
  O   O276      1.0  0.36503  0.60068  0.37669  1.0000
  H   H186      1.0  0.34429  0.54811  0.37677  1.0000
  Cu  Cu45      1.0  0.36541  0.64367  0.37665  1.0000
  C   C655      1.0  0.20208  0.55594  0.12679  1.0000
  C   C656      1.0  0.22344  0.57728  0.12679  1.0000
  C   C657      1.0  0.21567  0.60645  0.12673  1.0000
  C   C658      1.0  0.18652  0.61437  0.12667  1.0000
  C   C659      1.0  0.16507  0.59298  0.12667  1.0000
  C   C660      1.0  0.17293  0.56381  0.12673  1.0000
  O   O277      1.0  0.20971  0.52732  0.12685  1.0000
  O   O278      1.0  0.25203  0.56956  0.12685  1.0000
  H   H187      1.0  0.23151  0.62221  0.12673  1.0000
  O   O279      1.0  0.17898  0.64305  0.12661  1.0000
  O   O280      1.0  0.13639  0.60060  0.12661  1.0000
  H   H188      1.0  0.15711  0.54802  0.12673  1.0000
  Cu  Cu46      1.0  0.13603  0.64359  0.12654  1.0000
  C   C661      1.0  0.20223  0.50128  0.87681  1.0000
  C   C662      1.0  0.22358  0.47993  0.87681  1.0000
  C   C663      1.0  0.21579  0.45076  0.87678  1.0000
  C   C664      1.0  0.18664  0.44286  0.87674  1.0000
  C   C665      1.0  0.16520  0.46425  0.87674  1.0000
  C   C666      1.0  0.17307  0.49342  0.87678  1.0000
  O   O281      1.0  0.20987  0.52990  0.87685  1.0000
  O   O282      1.0  0.25217  0.48764  0.87685  1.0000
  H   H189      1.0  0.23163  0.43500  0.87678  1.0000
  O   O283      1.0  0.17908  0.41418  0.87670  1.0000
  O   O284      1.0  0.13651  0.45666  0.87670  1.0000
  H   H190      1.0  0.15726  0.50922  0.87678  1.0000
  Cu  Cu47      1.0  0.13613  0.41366  0.87666  1.0000
  C   C667      1.0  0.27812  0.48005  0.62677  1.0000
  C   C668      1.0  0.29947  0.50140  0.62677  1.0000
  C   C669      1.0  0.32864  0.49361  0.62671  1.0000
  C   C670      1.0  0.33654  0.46446  0.62666  1.0000
  C   C671      1.0  0.31515  0.44302  0.62665  1.0000
  C   C672      1.0  0.28598  0.45089  0.62671  1.0000
  O   O285      1.0  0.24950  0.48769  0.62683  1.0000
  O   O286      1.0  0.29176  0.52999  0.62683  1.0000
  H   H191      1.0  0.34440  0.50945  0.62671  1.0000
  O   O287      1.0  0.36522  0.45691  0.62660  1.0000
  O   O288      1.0  0.32275  0.41433  0.62660  1.0000
  H   H192      1.0  0.27018  0.43508  0.62671  1.0000
  Cu  Cu48      1.0  0.36574  0.41395  0.62653  1.0000
