data_image0
_chemical_formula_structural       C18HO2H2O2H2O2HFeC18HO2H2O2H2O2HFeC18HO2H2O2H2O2HFeC18HO2H2O2H2O2HFeC18HO2H2O2H2O2HFeC18HO2H2O2H2O2HFeC18HO2H2O2H2O2HFeC18HO2H2O2H2O2HFeC6O2HO2HCuC6O2HO2HCuC6O2HO2HCuC6O2HO2HCuC6O2HO2HCuC6O2HO2HCuC6O2HO2HCuC6O2HO2HCuC6O2HO2HCuC6O2HO2HCuC6O2HO2HCuC6O2HO2HCuC6O2HO2HCuC6O2HO2HCuC6O2HO2HCuC6O2HO2HCu2C6HO2HO2CuC6HO2HO2C6HO2HO2C6HO2HO2Cu2
_chemical_formula_sum              "C264 H88 O128 Fe8 Cu20"
_cell_length_a       53.5741
_cell_length_b       43.9888
_cell_length_c       41.1025
_cell_angle_alpha    90.0023
_cell_angle_beta     90
_cell_angle_gamma    90

_space_group_name_H-M_alt    "P 1"
_space_group_IT_number       1

loop_
  _space_group_symop_operation_xyz
  'x, y, z'

loop_
  _atom_site_type_symbol
  _atom_site_label
  _atom_site_symmetry_multiplicity
  _atom_site_fract_x
  _atom_site_fract_y
  _atom_site_fract_z
  _atom_site_occupancy
  C   C1        1.0  0.11439  0.98173  0.02791  1.0000
  C   C2        1.0  0.13702  0.99091  0.01401  1.0000
  C   C3        1.0  0.13702  0.00929  0.98619  1.0000
  C   C4        1.0  0.11439  0.01847  0.97229  1.0000
  C   C5        1.0  0.09176  0.00929  0.98619  1.0000
  C   C6        1.0  0.09176  0.99091  0.01401  1.0000
  C   C7        1.0  0.11439  0.03685  0.94448  1.0000
  C   C8        1.0  0.13702  0.04603  0.93057  1.0000
  C   C9        1.0  0.15965  0.03685  0.94448  1.0000
  C   C10       1.0  0.15965  0.01847  0.97229  1.0000
  C   C11       1.0  0.11439  0.96335  0.05572  1.0000
  C   C12       1.0  0.13702  0.95417  0.06963  1.0000
  C   C13       1.0  0.15965  0.96335  0.05572  1.0000
  C   C14       1.0  0.15965  0.98173  0.02791  1.0000
  C   C15       1.0  0.06913  0.98173  0.02791  1.0000
  C   C16       1.0  0.04650  0.99091  0.01401  1.0000
  C   C17       1.0  0.04650  0.00929  0.98619  1.0000
  C   C18       1.0  0.06913  0.01847  0.97229  1.0000
  H   H1        1.0  0.09742  0.04374  0.93405  1.0000
  O   O1        1.0  0.13702  0.06257  0.90554  1.0000
  O   O2        1.0  0.18002  0.04512  0.93196  1.0000
  H   H2        1.0  0.17663  0.01158  0.98272  1.0000
  H   H3        1.0  0.09742  0.95646  0.06615  1.0000
  O   O3        1.0  0.13702  0.93763  0.09466  1.0000
  O   O4        1.0  0.18002  0.95509  0.06824  1.0000
  H   H4        1.0  0.17663  0.98862  0.01748  1.0000
  H   H5        1.0  0.06913  0.96795  0.04877  1.0000
  O   O5        1.0  0.02613  0.98264  0.02652  1.0000
  O   O6        1.0  0.02613  0.01755  0.97368  1.0000
  H   H6        1.0  0.06913  0.03225  0.95143  1.0000
  Fe  Fe1       1.0  0.25001  0.83484  0.24999  1.0000
  C   C19       1.0  0.36298  0.99091  0.48610  1.0000
  C   C20       1.0  0.38561  0.98173  0.47219  1.0000
  C   C21       1.0  0.40824  0.99091  0.48610  1.0000
  C   C22       1.0  0.40824  0.00929  0.51391  1.0000
  C   C23       1.0  0.38561  0.01847  0.52781  1.0000
  C   C24       1.0  0.36298  0.00929  0.51391  1.0000
  C   C25       1.0  0.43087  0.01847  0.52781  1.0000
  C   C26       1.0  0.45350  0.00929  0.51391  1.0000
  C   C27       1.0  0.45350  0.99091  0.48610  1.0000
  C   C28       1.0  0.43087  0.98173  0.47219  1.0000
  C   C29       1.0  0.34034  0.98173  0.47219  1.0000
  C   C30       1.0  0.34035  0.96335  0.44438  1.0000
  C   C31       1.0  0.36298  0.95417  0.43047  1.0000
  C   C32       1.0  0.38561  0.96335  0.44438  1.0000
  C   C33       1.0  0.34034  0.01847  0.52781  1.0000
  C   C34       1.0  0.34034  0.03685  0.55563  1.0000
  C   C35       1.0  0.36298  0.04603  0.56953  1.0000
  C   C36       1.0  0.38561  0.03685  0.55563  1.0000
  H   H7        1.0  0.43087  0.03225  0.54867  1.0000
  O   O7        1.0  0.47387  0.01756  0.52642  1.0000
  O   O8        1.0  0.47387  0.98265  0.47358  1.0000
  H   H8        1.0  0.43087  0.96795  0.45133  1.0000
  H   H9        1.0  0.32337  0.98862  0.48262  1.0000
  O   O9        1.0  0.31998  0.95508  0.43186  1.0000
  O   O10       1.0  0.36298  0.93763  0.40544  1.0000
  H   H10       1.0  0.40258  0.95646  0.43395  1.0000
  H   H11       1.0  0.32337  0.01158  0.51738  1.0000
  O   O11       1.0  0.31998  0.04512  0.56814  1.0000
  O   O12       1.0  0.36298  0.06257  0.59456  1.0000
  H   H12       1.0  0.40258  0.04374  0.56606  1.0000
  Fe  Fe2       1.0  0.25000  0.16516  0.75001  1.0000
  C   C37       1.0  0.88561  0.01847  0.97229  1.0000
  C   C38       1.0  0.86298  0.00929  0.98619  1.0000
  C   C39       1.0  0.86298  0.99091  0.01401  1.0000
  C   C40       1.0  0.88561  0.98173  0.02791  1.0000
  C   C41       1.0  0.90824  0.99091  0.01401  1.0000
  C   C42       1.0  0.90824  0.00929  0.98619  1.0000
  C   C43       1.0  0.88561  0.96335  0.05572  1.0000
  C   C44       1.0  0.86298  0.95417  0.06963  1.0000
  C   C45       1.0  0.84035  0.96335  0.05572  1.0000
  C   C46       1.0  0.84035  0.98173  0.02791  1.0000
  C   C47       1.0  0.88561  0.03685  0.94448  1.0000
  C   C48       1.0  0.86298  0.04603  0.93057  1.0000
  C   C49       1.0  0.84035  0.03685  0.94448  1.0000
  C   C50       1.0  0.84035  0.01847  0.97229  1.0000
  C   C51       1.0  0.93087  0.01847  0.97229  1.0000
  C   C52       1.0  0.95350  0.00929  0.98620  1.0000
  C   C53       1.0  0.95350  0.99091  0.01401  1.0000
  C   C54       1.0  0.93087  0.98173  0.02791  1.0000
  H   H13       1.0  0.90258  0.95646  0.06615  1.0000
  O   O13       1.0  0.86298  0.93763  0.09466  1.0000
  O   O14       1.0  0.81998  0.95509  0.06824  1.0000
  H   H14       1.0  0.82337  0.98862  0.01748  1.0000
  H   H15       1.0  0.90258  0.04374  0.93405  1.0000
  O   O15       1.0  0.86298  0.06257  0.90554  1.0000
  O   O16       1.0  0.81998  0.04512  0.93196  1.0000
  H   H16       1.0  0.82337  0.01158  0.98272  1.0000
  H   H17       1.0  0.93087  0.03225  0.95143  1.0000
  O   O17       1.0  0.97387  0.01755  0.97368  1.0000
  O   O18       1.0  0.97387  0.98264  0.02652  1.0000
  H   H18       1.0  0.93087  0.96795  0.04877  1.0000
  Fe  Fe3       1.0  0.75000  0.16516  0.75001  1.0000
  C   C55       1.0  0.61439  0.98173  0.47219  1.0000
  C   C56       1.0  0.63702  0.99091  0.48610  1.0000
  C   C57       1.0  0.63702  0.00929  0.51391  1.0000
  C   C58       1.0  0.61439  0.01847  0.52781  1.0000
  C   C59       1.0  0.59176  0.00929  0.51391  1.0000
  C   C60       1.0  0.59176  0.99091  0.48610  1.0000
  C   C61       1.0  0.61439  0.03685  0.55563  1.0000
  C   C62       1.0  0.63702  0.04603  0.56953  1.0000
  C   C63       1.0  0.65966  0.03685  0.55563  1.0000
  C   C64       1.0  0.65966  0.01847  0.52781  1.0000
  C   C65       1.0  0.61439  0.96335  0.44438  1.0000
  C   C66       1.0  0.63702  0.95417  0.43047  1.0000
  C   C67       1.0  0.65965  0.96335  0.44438  1.0000
  C   C68       1.0  0.65966  0.98173  0.47219  1.0000
  C   C69       1.0  0.56913  0.98173  0.47219  1.0000
  C   C70       1.0  0.54650  0.99091  0.48610  1.0000
  C   C71       1.0  0.54650  0.00929  0.51391  1.0000
  C   C72       1.0  0.56913  0.01847  0.52782  1.0000
  H   H19       1.0  0.59742  0.04374  0.56606  1.0000
  O   O19       1.0  0.63702  0.06257  0.59456  1.0000
  O   O20       1.0  0.68002  0.04512  0.56814  1.0000
  H   H20       1.0  0.67663  0.01158  0.51738  1.0000
  H   H21       1.0  0.59742  0.95646  0.43395  1.0000
  O   O21       1.0  0.63702  0.93763  0.40544  1.0000
  O   O22       1.0  0.68002  0.95508  0.43186  1.0000
  H   H22       1.0  0.67663  0.98862  0.48262  1.0000
  H   H23       1.0  0.56913  0.96795  0.45133  1.0000
  O   O23       1.0  0.52613  0.98265  0.47358  1.0000
  O   O24       1.0  0.52613  0.01756  0.52642  1.0000
  H   H24       1.0  0.56913  0.03225  0.54867  1.0000
  Fe  Fe4       1.0  0.74999  0.83484  0.24999  1.0000
  C   C73       1.0  0.61439  0.48163  0.52781  1.0000
  C   C74       1.0  0.63702  0.49081  0.51391  1.0000
  C   C75       1.0  0.63702  0.50919  0.48610  1.0000
  C   C76       1.0  0.61439  0.51837  0.47219  1.0000
  C   C77       1.0  0.59176  0.50919  0.48610  1.0000
  C   C78       1.0  0.59176  0.49081  0.51391  1.0000
  C   C79       1.0  0.61439  0.53675  0.44438  1.0000
  C   C80       1.0  0.63702  0.54593  0.43047  1.0000
  C   C81       1.0  0.65965  0.53675  0.44438  1.0000
  C   C82       1.0  0.65965  0.51837  0.47219  1.0000
  C   C83       1.0  0.61439  0.46325  0.55562  1.0000
  C   C84       1.0  0.63702  0.45407  0.56953  1.0000
  C   C85       1.0  0.65965  0.46325  0.55562  1.0000
  C   C86       1.0  0.65965  0.48163  0.52781  1.0000
  C   C87       1.0  0.56913  0.48163  0.52781  1.0000
  C   C88       1.0  0.54650  0.49081  0.51391  1.0000
  C   C89       1.0  0.54650  0.50919  0.48610  1.0000
  C   C90       1.0  0.56913  0.51837  0.47219  1.0000
  H   H25       1.0  0.59742  0.54364  0.43395  1.0000
  O   O25       1.0  0.63702  0.56247  0.40544  1.0000
  O   O26       1.0  0.68002  0.54502  0.43186  1.0000
  H   H26       1.0  0.67663  0.51148  0.48262  1.0000
  H   H27       1.0  0.59742  0.45636  0.56605  1.0000
  O   O27       1.0  0.63702  0.43753  0.59456  1.0000
  O   O28       1.0  0.68002  0.45499  0.56814  1.0000
  H   H28       1.0  0.67663  0.48852  0.51738  1.0000
  H   H29       1.0  0.56913  0.46785  0.54867  1.0000
  O   O29       1.0  0.52613  0.48255  0.52642  1.0000
  O   O30       1.0  0.52613  0.51746  0.47358  1.0000
  H   H30       1.0  0.56913  0.53215  0.45133  1.0000
  Fe  Fe5       1.0  0.75000  0.33484  0.74999  1.0000
  C   C91       1.0  0.86298  0.49082  0.98619  1.0000
  C   C92       1.0  0.88561  0.48163  0.97229  1.0000
  C   C93       1.0  0.90824  0.49082  0.98619  1.0000
  C   C94       1.0  0.90824  0.50919  0.01401  1.0000
  C   C95       1.0  0.88561  0.51838  0.02791  1.0000
  C   C96       1.0  0.86298  0.50919  0.01401  1.0000
  C   C97       1.0  0.93087  0.51838  0.02791  1.0000
  C   C98       1.0  0.95350  0.50919  0.01401  1.0000
  C   C99       1.0  0.95350  0.49082  0.98619  1.0000
  C   C100      1.0  0.93087  0.48163  0.97229  1.0000
  C   C101      1.0  0.84035  0.48163  0.97229  1.0000
  C   C102      1.0  0.84035  0.46326  0.94447  1.0000
  C   C103      1.0  0.86298  0.45407  0.93057  1.0000
  C   C104      1.0  0.88561  0.46326  0.94447  1.0000
  C   C105      1.0  0.84035  0.51838  0.02791  1.0000
  C   C106      1.0  0.84035  0.53675  0.05573  1.0000
  C   C107      1.0  0.86298  0.54594  0.06963  1.0000
  C   C108      1.0  0.88561  0.53675  0.05573  1.0000
  H   H31       1.0  0.93087  0.53216  0.04877  1.0000
  O   O31       1.0  0.97387  0.51746  0.02652  1.0000
  O   O32       1.0  0.97387  0.48255  0.97368  1.0000
  H   H32       1.0  0.93087  0.46785  0.95143  1.0000
  H   H33       1.0  0.82338  0.48852  0.98272  1.0000
  O   O33       1.0  0.81998  0.45499  0.93196  1.0000
  O   O34       1.0  0.86298  0.43753  0.90554  1.0000
  H   H34       1.0  0.90259  0.45636  0.93404  1.0000
  H   H35       1.0  0.82338  0.51149  0.01748  1.0000
  O   O35       1.0  0.81998  0.54502  0.06824  1.0000
  O   O36       1.0  0.86298  0.56247  0.09466  1.0000
  H   H36       1.0  0.90258  0.54364  0.06616  1.0000
  Fe  Fe6       1.0  0.75000  0.66516  0.25001  1.0000
  C   C109      1.0  0.38561  0.51837  0.47219  1.0000
  C   C110      1.0  0.36298  0.50919  0.48610  1.0000
  C   C111      1.0  0.36298  0.49081  0.51391  1.0000
  C   C112      1.0  0.38561  0.48163  0.52781  1.0000
  C   C113      1.0  0.40824  0.49081  0.51391  1.0000
  C   C114      1.0  0.40824  0.50919  0.48610  1.0000
  C   C115      1.0  0.38561  0.46325  0.55562  1.0000
  C   C116      1.0  0.36298  0.45407  0.56953  1.0000
  C   C117      1.0  0.34035  0.46325  0.55562  1.0000
  C   C118      1.0  0.34035  0.48163  0.52781  1.0000
  C   C119      1.0  0.38561  0.53675  0.44438  1.0000
  C   C120      1.0  0.36298  0.54593  0.43047  1.0000
  C   C121      1.0  0.34035  0.53675  0.44438  1.0000
  C   C122      1.0  0.34035  0.51837  0.47219  1.0000
  C   C123      1.0  0.43087  0.51837  0.47219  1.0000
  C   C124      1.0  0.45350  0.50919  0.48610  1.0000
  C   C125      1.0  0.45350  0.49081  0.51391  1.0000
  C   C126      1.0  0.43087  0.48163  0.52781  1.0000
  H   H37       1.0  0.40258  0.45636  0.56605  1.0000
  O   O37       1.0  0.36298  0.43753  0.59456  1.0000
  O   O38       1.0  0.31998  0.45499  0.56814  1.0000
  H   H38       1.0  0.32337  0.48852  0.51738  1.0000
  H   H39       1.0  0.40258  0.54364  0.43395  1.0000
  O   O39       1.0  0.36298  0.56247  0.40544  1.0000
  O   O40       1.0  0.31998  0.54502  0.43187  1.0000
  H   H40       1.0  0.32337  0.51148  0.48262  1.0000
  H   H41       1.0  0.43087  0.53215  0.45133  1.0000
  O   O41       1.0  0.47387  0.51746  0.47358  1.0000
  O   O42       1.0  0.47387  0.48255  0.52642  1.0000
  H   H42       1.0  0.43087  0.46785  0.54867  1.0000
  Fe  Fe7       1.0  0.25000  0.66516  0.25001  1.0000
  C   C127      1.0  0.11439  0.48163  0.97229  1.0000
  C   C128      1.0  0.13702  0.49081  0.98619  1.0000
  C   C129      1.0  0.13702  0.50919  0.01401  1.0000
  C   C130      1.0  0.11439  0.51838  0.02791  1.0000
  C   C131      1.0  0.09176  0.50919  0.01401  1.0000
  C   C132      1.0  0.09176  0.49082  0.98619  1.0000
  C   C133      1.0  0.11439  0.53675  0.05573  1.0000
  C   C134      1.0  0.13702  0.54594  0.06963  1.0000
  C   C135      1.0  0.15965  0.53675  0.05573  1.0000
  C   C136      1.0  0.15965  0.51838  0.02791  1.0000
  C   C137      1.0  0.11439  0.46325  0.94447  1.0000
  C   C138      1.0  0.13702  0.45407  0.93057  1.0000
  C   C139      1.0  0.15965  0.46325  0.94447  1.0000
  C   C140      1.0  0.15965  0.48163  0.97229  1.0000
  C   C141      1.0  0.06913  0.48163  0.97229  1.0000
  C   C142      1.0  0.04650  0.49082  0.98619  1.0000
  C   C143      1.0  0.04650  0.50919  0.01401  1.0000
  C   C144      1.0  0.06913  0.51838  0.02791  1.0000
  H   H43       1.0  0.09742  0.54364  0.06616  1.0000
  O   O43       1.0  0.13702  0.56247  0.09466  1.0000
  O   O44       1.0  0.18002  0.54502  0.06824  1.0000
  H   H44       1.0  0.17662  0.51149  0.01748  1.0000
  H   H45       1.0  0.09741  0.45636  0.93404  1.0000
  O   O45       1.0  0.13702  0.43753  0.90554  1.0000
  O   O46       1.0  0.18002  0.45499  0.93196  1.0000
  H   H46       1.0  0.17662  0.48852  0.98272  1.0000
  H   H47       1.0  0.06913  0.46785  0.95143  1.0000
  O   O47       1.0  0.02613  0.48255  0.97368  1.0000
  O   O48       1.0  0.02613  0.51746  0.02652  1.0000
  H   H48       1.0  0.06913  0.53216  0.04877  1.0000
  Fe  Fe8       1.0  0.25000  0.33484  0.74999  1.0000
  C   C145      1.0  0.21253  0.14278  0.79268  1.0000
  C   C146      1.0  0.23647  0.12530  0.80150  1.0000
  C   C147      1.0  0.23604  0.10139  0.82883  1.0000
  C   C148      1.0  0.21166  0.09491  0.84742  1.0000
  C   C149      1.0  0.18763  0.11243  0.83861  1.0000
  C   C150      1.0  0.18814  0.13634  0.81124  1.0000
  O   O49       1.0  0.21295  0.16623  0.76586  1.0000
  O   O50       1.0  0.26039  0.13162  0.78330  1.0000
  H   H49       1.0  0.25379  0.08848  0.83531  1.0000
  O   O51       1.0  0.21133  0.07141  0.87426  1.0000
  O   O52       1.0  0.16361  0.10620  0.85676  1.0000
  H   H50       1.0  0.17041  0.14928  0.80472  1.0000
  Cu  Cu1       1.0  0.17292  0.07097  0.89246  1.0000
  C   C151      1.0  0.23641  0.87467  0.19852  1.0000
  C   C152      1.0  0.21247  0.85717  0.20735  1.0000
  C   C153      1.0  0.18805  0.86354  0.18886  1.0000
  C   C154      1.0  0.18749  0.88742  0.16149  1.0000
  C   C155      1.0  0.21148  0.90500  0.15260  1.0000
  C   C156      1.0  0.23589  0.89856  0.17116  1.0000
  O   O53       1.0  0.26037  0.86841  0.21666  1.0000
  O   O54       1.0  0.21298  0.83374  0.23418  1.0000
  H   H51       1.0  0.17036  0.85056  0.19544  1.0000
  O   O55       1.0  0.16345  0.89360  0.14339  1.0000
  O   O56       1.0  0.21109  0.92850  0.12574  1.0000
  H   H52       1.0  0.25360  0.91152  0.16461  1.0000
  Cu  Cu2       1.0  0.17260  0.92880  0.10766  1.0000
  C   C157      1.0  0.28748  0.85722  0.29267  1.0000
  C   C158      1.0  0.26353  0.87471  0.30148  1.0000
  C   C159      1.0  0.26396  0.89861  0.32882  1.0000
  C   C160      1.0  0.28834  0.90509  0.34741  1.0000
  C   C161      1.0  0.31237  0.88757  0.33860  1.0000
  C   C162      1.0  0.31187  0.86367  0.31123  1.0000
  O   O57       1.0  0.28705  0.83377  0.26585  1.0000
  O   O58       1.0  0.23962  0.86839  0.28328  1.0000
  H   H53       1.0  0.24622  0.91153  0.33530  1.0000
  O   O59       1.0  0.28867  0.92860  0.37425  1.0000
  O   O60       1.0  0.33640  0.89380  0.35675  1.0000
  H   H54       1.0  0.32960  0.85072  0.30471  1.0000
  Cu  Cu3       1.0  0.32708  0.92903  0.39246  1.0000
  C   C163      1.0  0.26360  0.12534  0.69853  1.0000
  C   C164      1.0  0.28753  0.14284  0.70736  1.0000
  C   C165      1.0  0.31196  0.13647  0.68887  1.0000
  C   C166      1.0  0.31251  0.11258  0.66150  1.0000
  C   C167      1.0  0.28852  0.09501  0.65261  1.0000
  C   C168      1.0  0.26412  0.10144  0.67117  1.0000
  O   O61       1.0  0.23964  0.13159  0.71668  1.0000
  O   O62       1.0  0.28703  0.16626  0.73419  1.0000
  H   H55       1.0  0.32965  0.14945  0.69545  1.0000
  O   O63       1.0  0.33655  0.10640  0.64340  1.0000
  O   O64       1.0  0.28891  0.07150  0.62575  1.0000
  H   H56       1.0  0.24640  0.08849  0.66463  1.0000
  Cu  Cu4       1.0  0.32740  0.07120  0.60766  1.0000
  C   C169      1.0  0.78747  0.85722  0.20732  1.0000
  C   C170      1.0  0.76352  0.87471  0.19850  1.0000
  C   C171      1.0  0.76396  0.89861  0.17117  1.0000
  C   C172      1.0  0.78833  0.90509  0.15258  1.0000
  C   C173      1.0  0.81237  0.88757  0.16139  1.0000
  C   C174      1.0  0.81186  0.86367  0.18876  1.0000
  O   O65       1.0  0.78704  0.83377  0.23414  1.0000
  O   O66       1.0  0.73960  0.86839  0.21670  1.0000
  H   H57       1.0  0.74621  0.91153  0.16469  1.0000
  O   O67       1.0  0.78867  0.92860  0.12574  1.0000
  O   O68       1.0  0.83639  0.89380  0.14324  1.0000
  H   H58       1.0  0.82959  0.85072  0.19528  1.0000
  Cu  Cu5       1.0  0.82708  0.92903  0.10754  1.0000
  C   C175      1.0  0.76360  0.12534  0.80148  1.0000
  C   C176      1.0  0.78753  0.14284  0.79265  1.0000
  C   C177      1.0  0.81196  0.13646  0.81114  1.0000
  C   C178      1.0  0.81251  0.11258  0.83851  1.0000
  C   C179      1.0  0.78852  0.09501  0.84740  1.0000
  C   C180      1.0  0.76411  0.10145  0.82884  1.0000
  O   O69       1.0  0.73963  0.13159  0.78334  1.0000
  O   O70       1.0  0.78702  0.16626  0.76582  1.0000
  H   H59       1.0  0.82965  0.14944  0.80456  1.0000
  O   O71       1.0  0.83655  0.10640  0.85661  1.0000
  O   O72       1.0  0.78891  0.07150  0.87426  1.0000
  H   H60       1.0  0.74640  0.08849  0.83539  1.0000
  Cu  Cu6       1.0  0.82740  0.07120  0.89235  1.0000
  C   C181      1.0  0.71253  0.14278  0.70733  1.0000
  C   C182      1.0  0.73647  0.12530  0.69852  1.0000
  C   C183      1.0  0.73604  0.10139  0.67118  1.0000
  C   C184      1.0  0.71166  0.09491  0.65259  1.0000
  C   C185      1.0  0.68763  0.11243  0.66140  1.0000
  C   C186      1.0  0.68814  0.13634  0.68877  1.0000
  O   O73       1.0  0.71295  0.16624  0.73415  1.0000
  O   O74       1.0  0.76039  0.13161  0.71672  1.0000
  H   H61       1.0  0.75379  0.08848  0.66470  1.0000
  O   O75       1.0  0.71133  0.07141  0.62575  1.0000
  O   O76       1.0  0.66361  0.10620  0.64325  1.0000
  H   H62       1.0  0.67041  0.14928  0.69529  1.0000
  Cu  Cu7       1.0  0.67292  0.07097  0.60755  1.0000
  C   C187      1.0  0.73640  0.87466  0.30147  1.0000
  C   C188      1.0  0.71246  0.85717  0.29264  1.0000
  C   C189      1.0  0.68804  0.86354  0.31113  1.0000
  C   C190      1.0  0.68748  0.88742  0.33850  1.0000
  C   C191      1.0  0.71148  0.90500  0.34739  1.0000
  C   C192      1.0  0.73588  0.89856  0.32883  1.0000
  O   O77       1.0  0.76036  0.86841  0.28332  1.0000
  O   O78       1.0  0.71297  0.83374  0.26581  1.0000
  H   H63       1.0  0.67035  0.85056  0.30455  1.0000
  O   O79       1.0  0.66344  0.89361  0.35661  1.0000
  O   O80       1.0  0.71109  0.92850  0.37425  1.0000
  H   H64       1.0  0.75360  0.91152  0.33537  1.0000
  Cu  Cu8       1.0  0.67260  0.92880  0.39234  1.0000
  C   C193      1.0  0.73673  0.62694  0.30300  1.0000
  C   C194      1.0  0.71214  0.64122  0.29113  1.0000
  C   C195      1.0  0.68739  0.63324  0.30810  1.0000
  C   C196      1.0  0.68716  0.61096  0.33698  1.0000
  C   C197      1.0  0.71181  0.59661  0.34891  1.0000
  C   C198      1.0  0.73654  0.60465  0.33187  1.0000
  O   O81       1.0  0.76102  0.63477  0.28635  1.0000
  O   O82       1.0  0.71233  0.66308  0.26282  1.0000
  H   H65       1.0  0.66921  0.64385  0.29927  1.0000
  O   O83       1.0  0.66279  0.60318  0.35357  1.0000
  O   O84       1.0  0.71174  0.57469  0.37727  1.0000
  H   H66       1.0  0.75474  0.59407  0.34066  1.0000
  Cu  Cu9       1.0  0.67260  0.57118  0.39233  1.0000
  C   C199      1.0  0.73640  0.37466  0.69852  1.0000
  C   C200      1.0  0.71247  0.35717  0.70735  1.0000
  C   C201      1.0  0.68805  0.36354  0.68886  1.0000
  C   C202      1.0  0.68749  0.38742  0.66149  1.0000
  C   C203      1.0  0.71148  0.40500  0.65260  1.0000
  C   C204      1.0  0.73589  0.39856  0.67116  1.0000
  O   O85       1.0  0.76037  0.36841  0.71666  1.0000
  O   O86       1.0  0.71298  0.33374  0.73418  1.0000
  H   H67       1.0  0.67035  0.35056  0.69544  1.0000
  O   O87       1.0  0.66345  0.39361  0.64339  1.0000
  O   O88       1.0  0.71109  0.42850  0.62574  1.0000
  H   H68       1.0  0.75360  0.41151  0.66461  1.0000
  Cu  Cu10      1.0  0.67260  0.42880  0.60766  1.0000
  C   C205      1.0  0.78748  0.35722  0.79267  1.0000
  C   C206      1.0  0.76353  0.37471  0.80149  1.0000
  C   C207      1.0  0.76397  0.39861  0.82882  1.0000
  C   C208      1.0  0.78834  0.40509  0.84741  1.0000
  C   C209      1.0  0.81237  0.38757  0.83860  1.0000
  C   C210      1.0  0.81187  0.36367  0.81123  1.0000
  O   O89       1.0  0.78705  0.33377  0.76585  1.0000
  O   O90       1.0  0.73962  0.36839  0.78329  1.0000
  H   H69       1.0  0.74622  0.41153  0.83530  1.0000
  O   O91       1.0  0.78867  0.42860  0.87425  1.0000
  O   O92       1.0  0.83640  0.39380  0.85675  1.0000
  H   H70       1.0  0.82960  0.35072  0.80471  1.0000
  Cu  Cu11      1.0  0.82709  0.42903  0.89246  1.0000
  C   C211      1.0  0.76360  0.62534  0.19853  1.0000
  C   C212      1.0  0.78753  0.64284  0.20736  1.0000
  C   C213      1.0  0.81196  0.63647  0.18887  1.0000
  C   C214      1.0  0.81252  0.61258  0.16150  1.0000
  C   C215      1.0  0.78852  0.59501  0.15261  1.0000
  C   C216      1.0  0.76412  0.60144  0.17117  1.0000
  O   O93       1.0  0.73964  0.63159  0.21668  1.0000
  O   O94       1.0  0.78703  0.66626  0.23419  1.0000
  H   H71       1.0  0.82965  0.64945  0.19545  1.0000
  O   O95       1.0  0.83656  0.60640  0.14340  1.0000
  O   O96       1.0  0.78891  0.57150  0.12575  1.0000
  H   H72       1.0  0.74640  0.58848  0.16463  1.0000
  Cu  Cu12      1.0  0.82740  0.57120  0.10766  1.0000
  C   C217      1.0  0.28747  0.35722  0.70732  1.0000
  C   C218      1.0  0.26352  0.37471  0.69850  1.0000
  C   C219      1.0  0.26396  0.39861  0.67117  1.0000
  C   C220      1.0  0.28833  0.40509  0.65258  1.0000
  C   C221      1.0  0.31237  0.38757  0.66139  1.0000
  C   C222      1.0  0.31186  0.36367  0.68876  1.0000
  O   O97       1.0  0.28704  0.33377  0.73414  1.0000
  O   O98       1.0  0.23961  0.36839  0.71670  1.0000
  H   H73       1.0  0.24621  0.41152  0.66469  1.0000
  O   O99       1.0  0.28867  0.42859  0.62574  1.0000
  O   O100      1.0  0.33639  0.39380  0.64324  1.0000
  H   H74       1.0  0.32959  0.35073  0.69528  1.0000
  Cu  Cu13      1.0  0.32708  0.42903  0.60754  1.0000
  C   C223      1.0  0.26360  0.62534  0.30148  1.0000
  C   C224      1.0  0.28753  0.64284  0.29265  1.0000
  C   C225      1.0  0.31196  0.63646  0.31114  1.0000
  C   C226      1.0  0.31251  0.61258  0.33851  1.0000
  C   C227      1.0  0.28852  0.59501  0.34740  1.0000
  C   C228      1.0  0.26411  0.60145  0.32885  1.0000
  O   O101      1.0  0.23963  0.63159  0.28334  1.0000
  O   O102      1.0  0.28702  0.66626  0.26582  1.0000
  H   H75       1.0  0.32965  0.64944  0.30456  1.0000
  O   O103      1.0  0.33655  0.60640  0.35661  1.0000
  O   O104      1.0  0.28891  0.57150  0.37426  1.0000
  H   H76       1.0  0.24640  0.58849  0.33539  1.0000
  Cu  Cu14      1.0  0.32740  0.57120  0.39235  1.0000
  C   C229      1.0  0.21253  0.64278  0.20733  1.0000
  C   C230      1.0  0.23647  0.62529  0.19852  1.0000
  C   C231      1.0  0.23604  0.60139  0.17118  1.0000
  C   C232      1.0  0.21166  0.59491  0.15259  1.0000
  C   C233      1.0  0.18763  0.61244  0.16140  1.0000
  C   C234      1.0  0.18813  0.63634  0.18877  1.0000
  O   O105      1.0  0.21295  0.66624  0.23415  1.0000
  O   O106      1.0  0.26039  0.63161  0.21672  1.0000
  H   H77       1.0  0.25378  0.58847  0.16470  1.0000
  O   O107      1.0  0.21133  0.57141  0.12575  1.0000
  O   O108      1.0  0.16360  0.60620  0.14325  1.0000
  H   H78       1.0  0.17041  0.64928  0.19529  1.0000
  Cu  Cu15      1.0  0.17291  0.57097  0.10755  1.0000
  C   C235      1.0  0.23640  0.37467  0.80147  1.0000
  C   C236      1.0  0.21246  0.35717  0.79264  1.0000
  C   C237      1.0  0.18804  0.36354  0.81113  1.0000
  C   C238      1.0  0.18748  0.38742  0.83850  1.0000
  C   C239      1.0  0.21148  0.40500  0.84739  1.0000
  C   C240      1.0  0.23588  0.39856  0.82883  1.0000
  O   O109      1.0  0.26036  0.36842  0.78333  1.0000
  O   O110      1.0  0.21297  0.33374  0.76581  1.0000
  H   H79       1.0  0.17035  0.35056  0.80455  1.0000
  O   O111      1.0  0.16344  0.39360  0.85660  1.0000
  O   O112      1.0  0.21109  0.42850  0.87425  1.0000
  H   H80       1.0  0.25360  0.41152  0.83538  1.0000
  Cu  Cu16      1.0  0.17260  0.42880  0.89234  1.0000
  Cu  Cu17      1.0  0.00010  0.00010  0.00010  1.0000
  C   C241      1.0  0.24129  0.75001  0.28211  1.0000
  C   C242      1.0  0.24565  0.77757  0.26605  1.0000
  C   C243      1.0  0.25436  0.77756  0.23394  1.0000
  C   C244      1.0  0.25871  0.75000  0.21789  1.0000
  C   C245      1.0  0.25436  0.72244  0.23395  1.0000
  C   C246      1.0  0.24564  0.72244  0.26606  1.0000
  H   H81       1.0  0.23476  0.75001  0.30620  1.0000
  O   O113      1.0  0.24173  0.80238  0.28050  1.0000
  O   O114      1.0  0.25828  0.80236  0.21949  1.0000
  H   H82       1.0  0.26525  0.74999  0.19380  1.0000
  O   O115      1.0  0.25828  0.69763  0.21950  1.0000
  O   O116      1.0  0.24172  0.69764  0.28052  1.0000
  Cu  Cu18      1.0  0.50000  0.00010  0.50000  1.0000
  C   C247      1.0  0.25871  0.25001  0.78211  1.0000
  C   C248      1.0  0.25436  0.22244  0.76606  1.0000
  C   C249      1.0  0.24564  0.22244  0.73395  1.0000
  C   C250      1.0  0.24129  0.25000  0.71789  1.0000
  C   C251      1.0  0.24564  0.27756  0.73394  1.0000
  C   C252      1.0  0.25435  0.27757  0.76605  1.0000
  H   H83       1.0  0.26524  0.25001  0.80620  1.0000
  O   O117      1.0  0.25828  0.19764  0.78051  1.0000
  O   O118      1.0  0.24173  0.19763  0.71950  1.0000
  H   H84       1.0  0.23475  0.24999  0.69380  1.0000
  O   O119      1.0  0.24172  0.30237  0.71949  1.0000
  O   O120      1.0  0.25827  0.30238  0.78050  1.0000
  C   C253      1.0  0.75871  0.25000  0.71789  1.0000
  C   C254      1.0  0.75436  0.22244  0.73395  1.0000
  C   C255      1.0  0.74564  0.22244  0.76606  1.0000
  C   C256      1.0  0.74129  0.25001  0.78211  1.0000
  C   C257      1.0  0.74565  0.27757  0.76605  1.0000
  C   C258      1.0  0.75436  0.27756  0.73394  1.0000
  H   H85       1.0  0.76525  0.24999  0.69380  1.0000
  O   O121      1.0  0.75827  0.19763  0.71950  1.0000
  O   O122      1.0  0.74172  0.19764  0.78051  1.0000
  H   H86       1.0  0.73476  0.25001  0.80620  1.0000
  O   O123      1.0  0.74173  0.30238  0.78050  1.0000
  O   O124      1.0  0.75828  0.30237  0.71949  1.0000
  C   C259      1.0  0.75871  0.75001  0.28211  1.0000
  C   C260      1.0  0.75435  0.72244  0.26606  1.0000
  C   C261      1.0  0.74564  0.72244  0.23395  1.0000
  C   C262      1.0  0.74128  0.75000  0.21789  1.0000
  C   C263      1.0  0.74564  0.77756  0.23394  1.0000
  C   C264      1.0  0.75435  0.77757  0.26605  1.0000
  H   H87       1.0  0.76524  0.75001  0.30620  1.0000
  O   O125      1.0  0.75828  0.69764  0.28051  1.0000
  O   O126      1.0  0.74172  0.69763  0.21950  1.0000
  H   H88       1.0  0.73475  0.74999  0.19380  1.0000
  O   O127      1.0  0.74172  0.80236  0.21949  1.0000
  O   O128      1.0  0.75827  0.80238  0.28050  1.0000
  Cu  Cu19      1.0  0.50000  0.50000  0.50000  1.0000
  Cu  Cu20      1.0  0.00010  0.50000  0.00010  1.0000
