data_image0
_chemical_formula_structural       C26H7O2H2O2HC4HO2HFeC26H7O2H2O2HC4HO2HFeC26H7O2H2O2HC4HO2HFeC26H7O2H2O2HC4HO2HFeC26H7O2H2O2HC4HO2HFeC26H7O2H2O2HC4HO2HFeC26H7O2H2O2HC4HO2HFeC26H7O2H2O2HC4HO2HFeC6O2HO2HCuC6O2HO2HCuC6O2HO2HCuC6O2HO2HCuC6O2HO2HCuC6O2HO2HCuC6O2HO2HCuC6O2HO2HCuC6O2HO2HCuC6O2HO2HCuC6O2HO2HCuC6O2HO2HCuC6O2HO2HCuC6O2HO2HCuC6O2HO2HCuC6O2HO2HCu2C6HO2HO2CuC6HO2HO2C6HO2HO2C6HO2HO2Cu2
_chemical_formula_sum              "C360 H136 O128 Fe8 Cu20"
_cell_length_a       73.009
_cell_length_b       50.4684
_cell_length_c       50.2605
_cell_angle_alpha    90
_cell_angle_beta     90
_cell_angle_gamma    90

_space_group_name_H-M_alt    "P 1"
_space_group_IT_number       1

loop_
  _space_group_symop_operation_xyz
  'x, y, z'

loop_
  _atom_site_type_symbol
  _atom_site_label
  _atom_site_symmetry_multiplicity
  _atom_site_fract_x
  _atom_site_fract_y
  _atom_site_fract_z
  _atom_site_occupancy
  C   C1        1.0  0.12831  0.98248  0.02512  1.0000
  C   C2        1.0  0.14657  0.99129  0.01261  1.0000
  C   C3        1.0  0.14657  0.00891  0.98760  1.0000
  C   C4        1.0  0.12831  0.01772  0.97509  1.0000
  C   C5        1.0  0.11004  0.00891  0.98760  1.0000
  C   C6        1.0  0.11004  0.99129  0.01261  1.0000
  C   C7        1.0  0.12831  0.03533  0.95007  1.0000
  C   C8        1.0  0.14657  0.04414  0.93756  1.0000
  C   C9        1.0  0.16484  0.03533  0.95007  1.0000
  C   C10       1.0  0.16484  0.01772  0.97509  1.0000
  C   C11       1.0  0.12831  0.96486  0.05014  1.0000
  C   C12       1.0  0.14657  0.95605  0.06265  1.0000
  C   C13       1.0  0.16484  0.96486  0.05014  1.0000
  C   C14       1.0  0.16484  0.98248  0.02512  1.0000
  C   C15       1.0  0.09177  0.98248  0.02512  1.0000
  C   C16       1.0  0.07351  0.99129  0.01261  1.0000
  C   C17       1.0  0.07351  0.00891  0.98760  1.0000
  C   C18       1.0  0.09177  0.01772  0.97509  1.0000
  C   C19       1.0  0.05524  0.01772  0.97509  1.0000
  C   C20       1.0  0.03697  0.00891  0.98759  1.0000
  C   C21       1.0  0.03697  0.99129  0.01261  1.0000
  C   C22       1.0  0.05524  0.98248  0.02512  1.0000
  C   C23       1.0  0.18311  0.04414  0.93756  1.0000
  C   C24       1.0  0.18311  0.06176  0.91254  1.0000
  C   C25       1.0  0.16484  0.07057  0.90003  1.0000
  C   C26       1.0  0.14657  0.06176  0.91254  1.0000
  H   H1        1.0  0.11478  0.04185  0.94081  1.0000
  H   H2        1.0  0.17836  0.01119  0.98435  1.0000
  H   H3        1.0  0.11478  0.95834  0.05940  1.0000
  H   H4        1.0  0.17836  0.98900  0.01586  1.0000
  H   H5        1.0  0.09177  0.96944  0.04364  1.0000
  H   H6        1.0  0.09177  0.03076  0.95657  1.0000
  H   H7        1.0  0.05524  0.03076  0.95657  1.0000
  O   O1        1.0  0.01917  0.01749  0.97541  1.0000
  O   O2        1.0  0.01917  0.98271  0.02480  1.0000
  H   H8        1.0  0.05524  0.96944  0.04364  1.0000
  H   H9        1.0  0.19663  0.03762  0.94682  1.0000
  O   O3        1.0  0.20090  0.07034  0.90036  1.0000
  O   O4        1.0  0.16484  0.08773  0.87567  1.0000
  H   H10       1.0  0.13305  0.06828  0.90328  1.0000
  C   C27       1.0  0.18311  0.95605  0.06265  1.0000
  C   C28       1.0  0.18311  0.93843  0.08766  1.0000
  C   C29       1.0  0.16484  0.92963  0.10017  1.0000
  C   C30       1.0  0.14657  0.93843  0.08766  1.0000
  H   H11       1.0  0.19663  0.96257  0.05339  1.0000
  O   O5        1.0  0.20090  0.92985  0.09985  1.0000
  O   O6        1.0  0.16484  0.91247  0.12454  1.0000
  H   H12       1.0  0.13305  0.93191  0.09692  1.0000
  Fe  Fe1       1.0  0.25000  0.82394  0.25000  1.0000
  C   C31       1.0  0.35343  0.99129  0.48748  1.0000
  C   C32       1.0  0.37169  0.98248  0.47498  1.0000
  C   C33       1.0  0.38996  0.99129  0.48749  1.0000
  C   C34       1.0  0.38996  0.00890  0.51250  1.0000
  C   C35       1.0  0.37169  0.01772  0.52501  1.0000
  C   C36       1.0  0.35343  0.00891  0.51251  1.0000
  C   C37       1.0  0.40823  0.01771  0.52501  1.0000
  C   C38       1.0  0.42649  0.00891  0.51251  1.0000
  C   C39       1.0  0.42650  0.99129  0.48749  1.0000
  C   C40       1.0  0.40823  0.98248  0.47498  1.0000
  C   C41       1.0  0.33516  0.98248  0.47498  1.0000
  C   C42       1.0  0.33516  0.96487  0.44997  1.0000
  C   C43       1.0  0.35343  0.95605  0.43745  1.0000
  C   C44       1.0  0.37169  0.96486  0.44996  1.0000
  C   C45       1.0  0.33516  0.01772  0.52502  1.0000
  C   C46       1.0  0.33516  0.03533  0.55003  1.0000
  C   C47       1.0  0.35343  0.04414  0.56254  1.0000
  C   C48       1.0  0.37169  0.03534  0.55004  1.0000
  C   C49       1.0  0.35343  0.06176  0.58756  1.0000
  C   C50       1.0  0.33516  0.07057  0.60007  1.0000
  C   C51       1.0  0.31689  0.06176  0.58756  1.0000
  C   C52       1.0  0.31689  0.04414  0.56254  1.0000
  C   C53       1.0  0.44477  0.98248  0.47498  1.0000
  C   C54       1.0  0.46303  0.99129  0.48748  1.0000
  C   C55       1.0  0.46303  0.00891  0.51251  1.0000
  C   C56       1.0  0.44476  0.01772  0.52502  1.0000
  H   H13       1.0  0.40823  0.03076  0.54354  1.0000
  H   H14       1.0  0.40823  0.96944  0.45646  1.0000
  H   H15       1.0  0.32163  0.98900  0.48424  1.0000
  H   H16       1.0  0.38521  0.95834  0.44071  1.0000
  H   H17       1.0  0.32164  0.01120  0.51576  1.0000
  H   H18       1.0  0.38521  0.04186  0.55930  1.0000
  H   H19       1.0  0.36695  0.06828  0.59682  1.0000
  O   O7        1.0  0.33516  0.08773  0.62444  1.0000
  O   O8        1.0  0.29910  0.07034  0.59974  1.0000
  H   H20       1.0  0.30337  0.03762  0.55328  1.0000
  H   H21       1.0  0.44476  0.96944  0.45646  1.0000
  O   O9        1.0  0.48083  0.98271  0.47530  1.0000
  O   O10       1.0  0.48082  0.01749  0.52469  1.0000
  H   H22       1.0  0.44476  0.03076  0.54353  1.0000
  C   C57       1.0  0.35343  0.93843  0.41243  1.0000
  C   C58       1.0  0.33516  0.92962  0.39992  1.0000
  C   C59       1.0  0.31689  0.93844  0.41244  1.0000
  C   C60       1.0  0.31689  0.95606  0.43746  1.0000
  H   H23       1.0  0.36695  0.93191  0.40318  1.0000
  O   O11       1.0  0.33516  0.91246  0.37556  1.0000
  O   O12       1.0  0.29910  0.92986  0.40025  1.0000
  H   H24       1.0  0.30337  0.96257  0.44671  1.0000
  Fe  Fe2       1.0  0.25000  0.17606  0.75000  1.0000
  C   C61       1.0  0.87169  0.01772  0.97508  1.0000
  C   C62       1.0  0.85343  0.00891  0.98759  1.0000
  C   C63       1.0  0.85343  0.99129  0.01260  1.0000
  C   C64       1.0  0.87169  0.98248  0.02511  1.0000
  C   C65       1.0  0.88996  0.99129  0.01260  1.0000
  C   C66       1.0  0.88996  0.00891  0.98759  1.0000
  C   C67       1.0  0.87169  0.96487  0.05013  1.0000
  C   C68       1.0  0.85343  0.95606  0.06264  1.0000
  C   C69       1.0  0.83516  0.96487  0.05013  1.0000
  C   C70       1.0  0.83516  0.98248  0.02511  1.0000
  C   C71       1.0  0.87169  0.03534  0.95006  1.0000
  C   C72       1.0  0.85343  0.04415  0.93755  1.0000
  C   C73       1.0  0.83516  0.03534  0.95006  1.0000
  C   C74       1.0  0.83516  0.01772  0.97508  1.0000
  C   C75       1.0  0.90823  0.01772  0.97508  1.0000
  C   C76       1.0  0.92649  0.00891  0.98759  1.0000
  C   C77       1.0  0.92649  0.99129  0.01260  1.0000
  C   C78       1.0  0.90823  0.98248  0.02511  1.0000
  C   C79       1.0  0.94476  0.98248  0.02511  1.0000
  C   C80       1.0  0.96303  0.99129  0.01260  1.0000
  C   C81       1.0  0.96303  0.00891  0.98759  1.0000
  C   C82       1.0  0.94476  0.01772  0.97508  1.0000
  C   C83       1.0  0.81689  0.95606  0.06264  1.0000
  C   C84       1.0  0.81689  0.93844  0.08766  1.0000
  C   C85       1.0  0.83516  0.92963  0.10017  1.0000
  C   C86       1.0  0.85343  0.93844  0.08766  1.0000
  H   H25       1.0  0.88522  0.95835  0.05939  1.0000
  H   H26       1.0  0.82164  0.98901  0.01585  1.0000
  H   H27       1.0  0.88522  0.04186  0.94080  1.0000
  H   H28       1.0  0.82164  0.01120  0.98434  1.0000
  H   H29       1.0  0.90823  0.03076  0.95656  1.0000
  H   H30       1.0  0.90823  0.96944  0.04363  1.0000
  H   H31       1.0  0.94476  0.96944  0.04363  1.0000
  O   O13       1.0  0.98083  0.98271  0.02479  1.0000
  O   O14       1.0  0.98083  0.01749  0.97540  1.0000
  H   H32       1.0  0.94476  0.03076  0.95656  1.0000
  H   H33       1.0  0.80337  0.96258  0.05338  1.0000
  O   O15       1.0  0.79910  0.92986  0.09984  1.0000
  O   O16       1.0  0.83516  0.91247  0.12453  1.0000
  H   H34       1.0  0.86695  0.93192  0.09692  1.0000
  C   C87       1.0  0.81689  0.04415  0.93755  1.0000
  C   C88       1.0  0.81689  0.06177  0.91254  1.0000
  C   C89       1.0  0.83516  0.07057  0.90003  1.0000
  C   C90       1.0  0.85343  0.06177  0.91254  1.0000
  H   H35       1.0  0.80337  0.03763  0.94681  1.0000
  O   O17       1.0  0.79910  0.07035  0.90035  1.0000
  O   O18       1.0  0.83516  0.08773  0.87566  1.0000
  H   H36       1.0  0.86695  0.06829  0.90328  1.0000
  Fe  Fe3       1.0  0.75000  0.17606  0.75000  1.0000
  C   C91       1.0  0.62831  0.98248  0.47498  1.0000
  C   C92       1.0  0.64657  0.99129  0.48749  1.0000
  C   C93       1.0  0.64657  0.00891  0.51251  1.0000
  C   C94       1.0  0.62831  0.01772  0.52501  1.0000
  C   C95       1.0  0.61004  0.00891  0.51251  1.0000
  C   C96       1.0  0.61004  0.99129  0.48749  1.0000
  C   C97       1.0  0.62831  0.03533  0.55003  1.0000
  C   C98       1.0  0.64657  0.04414  0.56254  1.0000
  C   C99       1.0  0.66484  0.03533  0.55003  1.0000
  C   C100      1.0  0.66484  0.01772  0.52501  1.0000
  C   C101      1.0  0.62831  0.96486  0.44996  1.0000
  C   C102      1.0  0.64657  0.95605  0.43745  1.0000
  C   C103      1.0  0.66484  0.96486  0.44996  1.0000
  C   C104      1.0  0.66484  0.98248  0.47498  1.0000
  C   C105      1.0  0.59177  0.98248  0.47498  1.0000
  C   C106      1.0  0.57351  0.99129  0.48749  1.0000
  C   C107      1.0  0.57351  0.00891  0.51251  1.0000
  C   C108      1.0  0.59177  0.01772  0.52501  1.0000
  C   C109      1.0  0.55524  0.01772  0.52501  1.0000
  C   C110      1.0  0.53696  0.00891  0.51251  1.0000
  C   C111      1.0  0.53696  0.99129  0.48749  1.0000
  C   C112      1.0  0.55524  0.98248  0.47498  1.0000
  C   C113      1.0  0.68311  0.04414  0.56254  1.0000
  C   C114      1.0  0.68311  0.06176  0.58756  1.0000
  C   C115      1.0  0.66484  0.07057  0.60007  1.0000
  C   C116      1.0  0.64657  0.06176  0.58756  1.0000
  H   H37       1.0  0.61478  0.04185  0.55929  1.0000
  H   H38       1.0  0.67836  0.01119  0.51575  1.0000
  H   H39       1.0  0.61478  0.95834  0.44070  1.0000
  H   H40       1.0  0.67836  0.98900  0.48424  1.0000
  H   H41       1.0  0.59177  0.96944  0.45646  1.0000
  H   H42       1.0  0.59177  0.03076  0.54353  1.0000
  H   H43       1.0  0.55524  0.03076  0.54353  1.0000
  O   O19       1.0  0.51917  0.01749  0.52469  1.0000
  O   O20       1.0  0.51917  0.98271  0.47530  1.0000
  H   H44       1.0  0.55524  0.96944  0.45646  1.0000
  H   H45       1.0  0.69663  0.03762  0.55328  1.0000
  O   O21       1.0  0.70090  0.07034  0.59974  1.0000
  O   O22       1.0  0.66484  0.08773  0.62443  1.0000
  H   H46       1.0  0.63305  0.06828  0.59682  1.0000
  C   C117      1.0  0.68311  0.95605  0.43745  1.0000
  C   C118      1.0  0.68311  0.93843  0.41244  1.0000
  C   C119      1.0  0.66484  0.92963  0.39993  1.0000
  C   C120      1.0  0.64657  0.93843  0.41244  1.0000
  H   H47       1.0  0.69663  0.96257  0.44671  1.0000
  O   O23       1.0  0.70090  0.92985  0.40025  1.0000
  O   O24       1.0  0.66484  0.91247  0.37556  1.0000
  H   H48       1.0  0.63305  0.93191  0.40318  1.0000
  Fe  Fe4       1.0  0.75000  0.82394  0.25000  1.0000
  C   C121      1.0  0.62831  0.48238  0.52502  1.0000
  C   C122      1.0  0.64657  0.49119  0.51251  1.0000
  C   C123      1.0  0.64657  0.50881  0.48750  1.0000
  C   C124      1.0  0.62831  0.51762  0.47499  1.0000
  C   C125      1.0  0.61004  0.50881  0.48750  1.0000
  C   C126      1.0  0.61004  0.49119  0.51251  1.0000
  C   C127      1.0  0.62831  0.53523  0.44997  1.0000
  C   C128      1.0  0.64657  0.54404  0.43746  1.0000
  C   C129      1.0  0.66484  0.53523  0.44997  1.0000
  C   C130      1.0  0.66484  0.51762  0.47499  1.0000
  C   C131      1.0  0.62831  0.46476  0.55004  1.0000
  C   C132      1.0  0.64657  0.45595  0.56255  1.0000
  C   C133      1.0  0.66484  0.46476  0.55004  1.0000
  C   C134      1.0  0.66484  0.48238  0.52502  1.0000
  C   C135      1.0  0.59176  0.48238  0.52502  1.0000
  C   C136      1.0  0.57351  0.49119  0.51251  1.0000
  C   C137      1.0  0.57351  0.50881  0.48750  1.0000
  C   C138      1.0  0.59176  0.51762  0.47499  1.0000
  C   C139      1.0  0.55523  0.51762  0.47499  1.0000
  C   C140      1.0  0.53696  0.50881  0.48750  1.0000
  C   C141      1.0  0.53696  0.49119  0.51251  1.0000
  C   C142      1.0  0.55523  0.48238  0.52502  1.0000
  C   C143      1.0  0.68311  0.54404  0.43746  1.0000
  C   C144      1.0  0.68311  0.56166  0.41244  1.0000
  C   C145      1.0  0.66484  0.57047  0.39994  1.0000
  C   C146      1.0  0.64657  0.56166  0.41244  1.0000
  H   H49       1.0  0.61478  0.54176  0.44071  1.0000
  H   H50       1.0  0.67836  0.51110  0.48425  1.0000
  H   H51       1.0  0.61478  0.45824  0.55930  1.0000
  H   H52       1.0  0.67836  0.48890  0.51576  1.0000
  H   H53       1.0  0.59176  0.46934  0.54354  1.0000
  H   H54       1.0  0.59176  0.53066  0.45647  1.0000
  H   H55       1.0  0.55523  0.53066  0.45647  1.0000
  O   O25       1.0  0.51917  0.51739  0.47531  1.0000
  O   O26       1.0  0.51917  0.48261  0.52470  1.0000
  H   H56       1.0  0.55523  0.46934  0.54354  1.0000
  H   H57       1.0  0.69663  0.53752  0.44672  1.0000
  O   O27       1.0  0.70090  0.57024  0.40026  1.0000
  O   O28       1.0  0.66484  0.58763  0.37557  1.0000
  H   H58       1.0  0.63305  0.56818  0.40318  1.0000
  C   C147      1.0  0.68311  0.45595  0.56255  1.0000
  C   C148      1.0  0.68311  0.43834  0.58757  1.0000
  C   C149      1.0  0.66484  0.42953  0.60007  1.0000
  C   C150      1.0  0.64657  0.43834  0.58757  1.0000
  H   H59       1.0  0.69663  0.46247  0.55329  1.0000
  O   O29       1.0  0.70090  0.42976  0.59975  1.0000
  O   O30       1.0  0.66484  0.41237  0.62444  1.0000
  H   H60       1.0  0.63305  0.43181  0.59683  1.0000
  Fe  Fe5       1.0  0.75000  0.32394  0.75000  1.0000
  C   C151      1.0  0.85343  0.49119  0.98758  1.0000
  C   C152      1.0  0.87169  0.48238  0.97508  1.0000
  C   C153      1.0  0.88996  0.49119  0.98759  1.0000
  C   C154      1.0  0.88996  0.50880  0.01260  1.0000
  C   C155      1.0  0.87169  0.51762  0.02511  1.0000
  C   C156      1.0  0.85343  0.50881  0.01261  1.0000
  C   C157      1.0  0.90823  0.51761  0.02511  1.0000
  C   C158      1.0  0.92649  0.50881  0.01261  1.0000
  C   C159      1.0  0.92649  0.49119  0.98759  1.0000
  C   C160      1.0  0.90823  0.48238  0.97508  1.0000
  C   C161      1.0  0.83516  0.48238  0.97507  1.0000
  C   C162      1.0  0.83516  0.46477  0.95007  1.0000
  C   C163      1.0  0.85343  0.45595  0.93755  1.0000
  C   C164      1.0  0.87169  0.46476  0.95006  1.0000
  C   C165      1.0  0.83516  0.51762  0.02512  1.0000
  C   C166      1.0  0.83516  0.53523  0.05013  1.0000
  C   C167      1.0  0.85343  0.54404  0.06263  1.0000
  C   C168      1.0  0.87169  0.53524  0.05014  1.0000
  C   C169      1.0  0.85343  0.56166  0.08766  1.0000
  C   C170      1.0  0.83516  0.57047  0.10017  1.0000
  C   C171      1.0  0.81689  0.56166  0.08766  1.0000
  C   C172      1.0  0.81689  0.54404  0.06264  1.0000
  C   C173      1.0  0.94476  0.48238  0.97508  1.0000
  C   C174      1.0  0.96303  0.49119  0.98758  1.0000
  C   C175      1.0  0.96303  0.50881  0.01261  1.0000
  C   C176      1.0  0.94476  0.51762  0.02512  1.0000
  H   H61       1.0  0.90822  0.53066  0.04364  1.0000
  H   H62       1.0  0.90823  0.46934  0.95656  1.0000
  H   H63       1.0  0.82163  0.48890  0.98434  1.0000
  H   H64       1.0  0.88521  0.45824  0.94081  1.0000
  H   H65       1.0  0.82163  0.51110  0.01586  1.0000
  H   H66       1.0  0.88521  0.54176  0.05940  1.0000
  H   H67       1.0  0.86695  0.56818  0.09692  1.0000
  O   O31       1.0  0.83516  0.58763  0.12454  1.0000
  O   O32       1.0  0.79910  0.57024  0.09984  1.0000
  H   H68       1.0  0.80337  0.53752  0.05338  1.0000
  H   H69       1.0  0.94476  0.46934  0.95656  1.0000
  O   O33       1.0  0.98082  0.48261  0.97540  1.0000
  O   O34       1.0  0.98082  0.51739  0.02479  1.0000
  H   H70       1.0  0.94476  0.53066  0.04363  1.0000
  C   C177      1.0  0.85343  0.43833  0.91253  1.0000
  C   C178      1.0  0.83516  0.42952  0.90002  1.0000
  C   C179      1.0  0.81689  0.43834  0.91254  1.0000
  C   C180      1.0  0.81689  0.45596  0.93756  1.0000
  H   H71       1.0  0.86695  0.43181  0.90328  1.0000
  O   O35       1.0  0.83516  0.41236  0.87566  1.0000
  O   O36       1.0  0.79910  0.42976  0.90035  1.0000
  H   H72       1.0  0.80337  0.46247  0.94681  1.0000
  Fe  Fe6       1.0  0.75000  0.67606  0.25000  1.0000
  C   C181      1.0  0.37169  0.51762  0.47498  1.0000
  C   C182      1.0  0.35343  0.50881  0.48749  1.0000
  C   C183      1.0  0.35343  0.49119  0.51251  1.0000
  C   C184      1.0  0.37169  0.48239  0.52501  1.0000
  C   C185      1.0  0.38996  0.49119  0.51251  1.0000
  C   C186      1.0  0.38996  0.50881  0.48749  1.0000
  C   C187      1.0  0.37169  0.46477  0.55003  1.0000
  C   C188      1.0  0.35343  0.45596  0.56254  1.0000
  C   C189      1.0  0.33516  0.46477  0.55003  1.0000
  C   C190      1.0  0.33516  0.48239  0.52501  1.0000
  C   C191      1.0  0.37169  0.53524  0.44996  1.0000
  C   C192      1.0  0.35343  0.54405  0.43745  1.0000
  C   C193      1.0  0.33516  0.53524  0.44996  1.0000
  C   C194      1.0  0.33516  0.51762  0.47498  1.0000
  C   C195      1.0  0.40824  0.51762  0.47498  1.0000
  C   C196      1.0  0.42649  0.50881  0.48749  1.0000
  C   C197      1.0  0.42649  0.49119  0.51251  1.0000
  C   C198      1.0  0.40824  0.48239  0.52501  1.0000
  C   C199      1.0  0.44477  0.48239  0.52501  1.0000
  C   C200      1.0  0.46304  0.49119  0.51251  1.0000
  C   C201      1.0  0.46304  0.50881  0.48749  1.0000
  C   C202      1.0  0.44477  0.51762  0.47498  1.0000
  C   C203      1.0  0.31689  0.45596  0.56254  1.0000
  C   C204      1.0  0.31689  0.43834  0.58756  1.0000
  C   C205      1.0  0.33516  0.42953  0.60007  1.0000
  C   C206      1.0  0.35343  0.43834  0.58756  1.0000
  H   H73       1.0  0.38522  0.45825  0.55929  1.0000
  H   H74       1.0  0.32164  0.48891  0.51576  1.0000
  H   H75       1.0  0.38522  0.54176  0.44070  1.0000
  H   H76       1.0  0.32164  0.51110  0.48424  1.0000
  H   H77       1.0  0.40824  0.53066  0.45646  1.0000
  H   H78       1.0  0.40824  0.46934  0.54353  1.0000
  H   H79       1.0  0.44477  0.46934  0.54353  1.0000
  O   O37       1.0  0.48083  0.48261  0.52469  1.0000
  O   O38       1.0  0.48083  0.51739  0.47531  1.0000
  H   H80       1.0  0.44477  0.53066  0.45646  1.0000
  H   H81       1.0  0.30337  0.46248  0.55328  1.0000
  O   O39       1.0  0.29910  0.42976  0.59974  1.0000
  O   O40       1.0  0.33516  0.41237  0.62443  1.0000
  H   H82       1.0  0.36695  0.43182  0.59682  1.0000
  C   C207      1.0  0.31689  0.54405  0.43745  1.0000
  C   C208      1.0  0.31689  0.56167  0.41244  1.0000
  C   C209      1.0  0.33516  0.57048  0.39993  1.0000
  C   C210      1.0  0.35343  0.56167  0.41244  1.0000
  H   H83       1.0  0.30337  0.53753  0.44671  1.0000
  O   O41       1.0  0.29910  0.57025  0.40025  1.0000
  O   O42       1.0  0.33516  0.58764  0.37556  1.0000
  H   H84       1.0  0.36695  0.56819  0.40318  1.0000
  Fe  Fe7       1.0  0.25000  0.67606  0.25000  1.0000
  C   C211      1.0  0.12831  0.48238  0.97508  1.0000
  C   C212      1.0  0.14657  0.49119  0.98759  1.0000
  C   C213      1.0  0.14657  0.50881  0.01260  1.0000
  C   C214      1.0  0.12831  0.51762  0.02511  1.0000
  C   C215      1.0  0.11004  0.50881  0.01260  1.0000
  C   C216      1.0  0.11004  0.49119  0.98759  1.0000
  C   C217      1.0  0.12831  0.53523  0.05013  1.0000
  C   C218      1.0  0.14657  0.54404  0.06264  1.0000
  C   C219      1.0  0.16484  0.53523  0.05013  1.0000
  C   C220      1.0  0.16484  0.51762  0.02511  1.0000
  C   C221      1.0  0.12831  0.46476  0.95006  1.0000
  C   C222      1.0  0.14657  0.45595  0.93755  1.0000
  C   C223      1.0  0.16484  0.46476  0.95006  1.0000
  C   C224      1.0  0.16484  0.48238  0.97508  1.0000
  C   C225      1.0  0.09177  0.48238  0.97508  1.0000
  C   C226      1.0  0.07351  0.49119  0.98759  1.0000
  C   C227      1.0  0.07351  0.50881  0.01260  1.0000
  C   C228      1.0  0.09177  0.51762  0.02511  1.0000
  C   C229      1.0  0.05524  0.51762  0.02511  1.0000
  C   C230      1.0  0.03697  0.50881  0.01261  1.0000
  C   C231      1.0  0.03697  0.49119  0.98759  1.0000
  C   C232      1.0  0.05524  0.48238  0.97508  1.0000
  C   C233      1.0  0.18311  0.54404  0.06264  1.0000
  C   C234      1.0  0.18311  0.56166  0.08766  1.0000
  C   C235      1.0  0.16484  0.57047  0.10017  1.0000
  C   C236      1.0  0.14657  0.56166  0.08766  1.0000
  H   H85       1.0  0.11478  0.54175  0.05939  1.0000
  H   H86       1.0  0.17836  0.51109  0.01585  1.0000
  H   H87       1.0  0.11478  0.45824  0.94080  1.0000
  H   H88       1.0  0.17836  0.48890  0.98434  1.0000
  H   H89       1.0  0.09177  0.46934  0.95656  1.0000
  H   H90       1.0  0.09177  0.53066  0.04363  1.0000
  H   H91       1.0  0.05524  0.53066  0.04363  1.0000
  O   O43       1.0  0.01917  0.51739  0.02479  1.0000
  O   O44       1.0  0.01917  0.48261  0.97540  1.0000
  H   H92       1.0  0.05524  0.46934  0.95656  1.0000
  H   H93       1.0  0.19663  0.53752  0.05338  1.0000
  O   O45       1.0  0.20091  0.57024  0.09984  1.0000
  O   O46       1.0  0.16484  0.58763  0.12453  1.0000
  H   H94       1.0  0.13305  0.56818  0.09692  1.0000
  C   C237      1.0  0.18311  0.45595  0.93755  1.0000
  C   C238      1.0  0.18311  0.43833  0.91254  1.0000
  C   C239      1.0  0.16484  0.42953  0.90003  1.0000
  C   C240      1.0  0.14657  0.43833  0.91254  1.0000
  H   H95       1.0  0.19663  0.46247  0.94681  1.0000
  O   O47       1.0  0.20091  0.42975  0.90035  1.0000
  O   O48       1.0  0.16484  0.41237  0.87566  1.0000
  H   H96       1.0  0.13305  0.43181  0.90328  1.0000
  Fe  Fe8       1.0  0.25000  0.32394  0.75000  1.0000
  C   C241      1.0  0.22250  0.15655  0.78490  1.0000
  C   C242      1.0  0.24007  0.14131  0.79211  1.0000
  C   C243      1.0  0.23975  0.12047  0.81446  1.0000
  C   C244      1.0  0.22187  0.11482  0.82966  1.0000
  C   C245      1.0  0.20423  0.13010  0.82245  1.0000
  C   C246      1.0  0.20460  0.15093  0.80007  1.0000
  O   O49       1.0  0.22281  0.17699  0.76297  1.0000
  O   O50       1.0  0.25762  0.14682  0.77723  1.0000
  H   H97       1.0  0.25278  0.10922  0.81976  1.0000
  O   O51       1.0  0.22162  0.09434  0.85161  1.0000
  O   O52       1.0  0.18660  0.12466  0.83730  1.0000
  H   H98       1.0  0.19159  0.16221  0.79474  1.0000
  Cu  Cu1       1.0  0.19343  0.09395  0.86649  1.0000
  C   C247      1.0  0.24002  0.85866  0.20791  1.0000
  C   C248      1.0  0.22246  0.84340  0.21513  1.0000
  C   C249      1.0  0.20453  0.84896  0.20001  1.0000
  C   C250      1.0  0.20413  0.86978  0.17763  1.0000
  C   C251      1.0  0.22173  0.88509  0.17036  1.0000
  C   C252      1.0  0.23964  0.87948  0.18553  1.0000
  O   O53       1.0  0.25761  0.85321  0.22274  1.0000
  O   O54       1.0  0.22283  0.82298  0.23707  1.0000
  H   H99       1.0  0.19155  0.83764  0.20539  1.0000
  O   O55       1.0  0.18648  0.87517  0.16283  1.0000
  O   O56       1.0  0.22145  0.90558  0.14839  1.0000
  H   H100      1.0  0.25264  0.89078  0.18018  1.0000
  Cu  Cu2       1.0  0.19320  0.90585  0.13360  1.0000
  C   C253      1.0  0.27750  0.84345  0.28490  1.0000
  C   C254      1.0  0.25993  0.85869  0.29211  1.0000
  C   C255      1.0  0.26025  0.87953  0.31446  1.0000
  C   C256      1.0  0.27813  0.88518  0.32966  1.0000
  C   C257      1.0  0.29577  0.86990  0.32245  1.0000
  C   C258      1.0  0.29540  0.84907  0.30007  1.0000
  O   O57       1.0  0.27719  0.82301  0.26297  1.0000
  O   O58       1.0  0.24238  0.85318  0.27723  1.0000
  H   H101      1.0  0.24722  0.89078  0.31976  1.0000
  O   O59       1.0  0.27838  0.90567  0.35161  1.0000
  O   O60       1.0  0.31340  0.87534  0.33729  1.0000
  H   H102      1.0  0.30841  0.83779  0.29474  1.0000
  Cu  Cu3       1.0  0.30657  0.90605  0.36649  1.0000
  C   C259      1.0  0.25998  0.14135  0.70791  1.0000
  C   C260      1.0  0.27754  0.15660  0.71513  1.0000
  C   C261      1.0  0.29547  0.15104  0.70001  1.0000
  C   C262      1.0  0.29587  0.13022  0.67763  1.0000
  C   C263      1.0  0.27827  0.11491  0.67036  1.0000
  C   C264      1.0  0.26036  0.12052  0.68553  1.0000
  O   O61       1.0  0.24239  0.14680  0.72274  1.0000
  O   O62       1.0  0.27717  0.17702  0.73707  1.0000
  H   H103      1.0  0.30845  0.16236  0.70539  1.0000
  O   O63       1.0  0.31352  0.12483  0.66283  1.0000
  O   O64       1.0  0.27856  0.09442  0.64839  1.0000
  H   H104      1.0  0.24736  0.10923  0.68018  1.0000
  Cu  Cu4       1.0  0.30680  0.09415  0.63360  1.0000
  C   C265      1.0  0.77750  0.84345  0.21510  1.0000
  C   C266      1.0  0.75993  0.85869  0.20789  1.0000
  C   C267      1.0  0.76025  0.87953  0.18554  1.0000
  C   C268      1.0  0.77813  0.88518  0.17034  1.0000
  C   C269      1.0  0.79577  0.86990  0.17755  1.0000
  C   C270      1.0  0.79540  0.84907  0.19993  1.0000
  O   O65       1.0  0.77719  0.82301  0.23704  1.0000
  O   O66       1.0  0.74238  0.85318  0.22278  1.0000
  H   H105      1.0  0.74722  0.89078  0.18024  1.0000
  O   O67       1.0  0.77838  0.90567  0.14839  1.0000
  O   O68       1.0  0.81340  0.87534  0.16271  1.0000
  H   H106      1.0  0.80841  0.83779  0.20526  1.0000
  Cu  Cu5       1.0  0.80657  0.90605  0.13351  1.0000
  C   C271      1.0  0.75998  0.14135  0.79209  1.0000
  C   C272      1.0  0.77754  0.15660  0.78487  1.0000
  C   C273      1.0  0.79547  0.15104  0.79999  1.0000
  C   C274      1.0  0.79587  0.13022  0.82237  1.0000
  C   C275      1.0  0.77827  0.11491  0.82964  1.0000
  C   C276      1.0  0.76036  0.12052  0.81447  1.0000
  O   O69       1.0  0.74239  0.14680  0.77726  1.0000
  O   O70       1.0  0.77717  0.17702  0.76293  1.0000
  H   H107      1.0  0.80845  0.16236  0.79461  1.0000
  O   O71       1.0  0.81352  0.12483  0.83717  1.0000
  O   O72       1.0  0.77855  0.09442  0.85161  1.0000
  H   H108      1.0  0.74736  0.10923  0.81982  1.0000
  Cu  Cu6       1.0  0.80680  0.09415  0.86640  1.0000
  C   C277      1.0  0.72250  0.15655  0.71510  1.0000
  C   C278      1.0  0.74007  0.14131  0.70789  1.0000
  C   C279      1.0  0.73975  0.12047  0.68554  1.0000
  C   C280      1.0  0.72187  0.11482  0.67034  1.0000
  C   C281      1.0  0.70423  0.13010  0.67755  1.0000
  C   C282      1.0  0.70460  0.15093  0.69993  1.0000
  O   O73       1.0  0.72281  0.17699  0.73704  1.0000
  O   O74       1.0  0.75762  0.14682  0.72278  1.0000
  H   H109      1.0  0.75278  0.10922  0.68024  1.0000
  O   O75       1.0  0.72162  0.09434  0.64839  1.0000
  O   O76       1.0  0.68660  0.12466  0.66271  1.0000
  H   H110      1.0  0.69159  0.16221  0.70526  1.0000
  Cu  Cu7       1.0  0.69343  0.09395  0.63351  1.0000
  C   C283      1.0  0.74002  0.85866  0.29209  1.0000
  C   C284      1.0  0.72246  0.84340  0.28487  1.0000
  C   C285      1.0  0.70453  0.84896  0.29999  1.0000
  C   C286      1.0  0.70413  0.86978  0.32237  1.0000
  C   C287      1.0  0.72173  0.88509  0.32964  1.0000
  C   C288      1.0  0.73964  0.87948  0.31447  1.0000
  O   O77       1.0  0.75761  0.85321  0.27726  1.0000
  O   O78       1.0  0.72283  0.82298  0.26293  1.0000
  H   H111      1.0  0.69155  0.83764  0.29461  1.0000
  O   O79       1.0  0.68648  0.87517  0.33717  1.0000
  O   O80       1.0  0.72144  0.90558  0.35161  1.0000
  H   H112      1.0  0.75264  0.89078  0.31982  1.0000
  Cu  Cu8       1.0  0.69320  0.90585  0.36640  1.0000
  C   C289      1.0  0.72250  0.65655  0.28490  1.0000
  C   C290      1.0  0.74007  0.64131  0.29211  1.0000
  C   C291      1.0  0.73975  0.62047  0.31446  1.0000
  C   C292      1.0  0.72187  0.61483  0.32966  1.0000
  C   C293      1.0  0.70423  0.63010  0.32245  1.0000
  C   C294      1.0  0.70460  0.65093  0.30007  1.0000
  O   O81       1.0  0.72281  0.67699  0.26297  1.0000
  O   O82       1.0  0.75762  0.64682  0.27723  1.0000
  H   H113      1.0  0.75278  0.60922  0.31976  1.0000
  O   O83       1.0  0.72162  0.59434  0.35161  1.0000
  O   O84       1.0  0.68660  0.62466  0.33730  1.0000
  H   H114      1.0  0.69159  0.66221  0.29474  1.0000
  Cu  Cu9       1.0  0.69343  0.59396  0.36649  1.0000
  C   C295      1.0  0.74002  0.35865  0.70791  1.0000
  C   C296      1.0  0.72246  0.34340  0.71513  1.0000
  C   C297      1.0  0.70453  0.34896  0.70001  1.0000
  C   C298      1.0  0.70412  0.36978  0.67763  1.0000
  C   C299      1.0  0.72173  0.38509  0.67036  1.0000
  C   C300      1.0  0.73964  0.37948  0.68553  1.0000
  O   O85       1.0  0.75761  0.35321  0.72274  1.0000
  O   O86       1.0  0.72283  0.32298  0.73707  1.0000
  H   H115      1.0  0.69155  0.33764  0.70539  1.0000
  O   O87       1.0  0.68648  0.37517  0.66283  1.0000
  O   O88       1.0  0.72144  0.40558  0.64839  1.0000
  H   H116      1.0  0.75264  0.39078  0.68018  1.0000
  Cu  Cu10      1.0  0.69320  0.40585  0.63361  1.0000
  C   C301      1.0  0.77750  0.34345  0.78490  1.0000
  C   C302      1.0  0.75993  0.35869  0.79211  1.0000
  C   C303      1.0  0.76025  0.37953  0.81446  1.0000
  C   C304      1.0  0.77813  0.38518  0.82966  1.0000
  C   C305      1.0  0.79577  0.36990  0.82246  1.0000
  C   C306      1.0  0.79540  0.34907  0.80008  1.0000
  O   O89       1.0  0.77719  0.32301  0.76297  1.0000
  O   O90       1.0  0.74238  0.35318  0.77723  1.0000
  H   H117      1.0  0.74722  0.39078  0.81976  1.0000
  O   O91       1.0  0.77838  0.40566  0.85161  1.0000
  O   O92       1.0  0.81340  0.37534  0.83730  1.0000
  H   H118      1.0  0.80841  0.33779  0.79474  1.0000
  Cu  Cu11      1.0  0.80657  0.40605  0.86649  1.0000
  C   C307      1.0  0.75998  0.64135  0.20791  1.0000
  C   C308      1.0  0.77754  0.65660  0.21513  1.0000
  C   C309      1.0  0.79547  0.65104  0.20001  1.0000
  C   C310      1.0  0.79587  0.63022  0.17763  1.0000
  C   C311      1.0  0.77827  0.61491  0.17036  1.0000
  C   C312      1.0  0.76036  0.62052  0.18553  1.0000
  O   O93       1.0  0.74239  0.64680  0.22274  1.0000
  O   O94       1.0  0.77717  0.67702  0.23707  1.0000
  H   H119      1.0  0.80845  0.66236  0.20539  1.0000
  O   O95       1.0  0.81352  0.62483  0.16283  1.0000
  O   O96       1.0  0.77855  0.59442  0.14839  1.0000
  H   H120      1.0  0.74736  0.60923  0.18018  1.0000
  Cu  Cu12      1.0  0.80680  0.59415  0.13360  1.0000
  C   C313      1.0  0.27750  0.34345  0.71510  1.0000
  C   C314      1.0  0.25993  0.35869  0.70789  1.0000
  C   C315      1.0  0.26025  0.37953  0.68554  1.0000
  C   C316      1.0  0.27813  0.38518  0.67034  1.0000
  C   C317      1.0  0.29577  0.36990  0.67755  1.0000
  C   C318      1.0  0.29540  0.34907  0.69993  1.0000
  O   O97       1.0  0.27719  0.32301  0.73704  1.0000
  O   O98       1.0  0.24238  0.35318  0.72277  1.0000
  H   H121      1.0  0.24722  0.39078  0.68024  1.0000
  O   O99       1.0  0.27838  0.40567  0.64839  1.0000
  O   O100      1.0  0.31340  0.37534  0.66271  1.0000
  H   H122      1.0  0.30841  0.33779  0.70526  1.0000
  Cu  Cu13      1.0  0.30657  0.40605  0.63351  1.0000
  C   C319      1.0  0.25998  0.64135  0.29210  1.0000
  C   C320      1.0  0.27754  0.65660  0.28487  1.0000
  C   C321      1.0  0.29547  0.65104  0.29999  1.0000
  C   C322      1.0  0.29588  0.63022  0.32237  1.0000
  C   C323      1.0  0.27827  0.61491  0.32964  1.0000
  C   C324      1.0  0.26036  0.62052  0.31447  1.0000
  O   O101      1.0  0.24239  0.64680  0.27726  1.0000
  O   O102      1.0  0.27717  0.67702  0.26293  1.0000
  H   H123      1.0  0.30845  0.66236  0.29461  1.0000
  O   O103      1.0  0.31352  0.62483  0.33717  1.0000
  O   O104      1.0  0.27856  0.59442  0.35161  1.0000
  H   H124      1.0  0.24736  0.60923  0.31982  1.0000
  Cu  Cu14      1.0  0.30680  0.59416  0.36640  1.0000
  C   C325      1.0  0.22250  0.65655  0.21510  1.0000
  C   C326      1.0  0.24007  0.64131  0.20789  1.0000
  C   C327      1.0  0.23975  0.62047  0.18554  1.0000
  C   C328      1.0  0.22187  0.61483  0.17034  1.0000
  C   C329      1.0  0.20423  0.63010  0.17755  1.0000
  C   C330      1.0  0.20460  0.65093  0.19993  1.0000
  O   O105      1.0  0.22281  0.67699  0.23704  1.0000
  O   O106      1.0  0.25762  0.64682  0.22278  1.0000
  H   H125      1.0  0.25278  0.60922  0.18024  1.0000
  O   O107      1.0  0.22162  0.59434  0.14839  1.0000
  O   O108      1.0  0.18660  0.62466  0.16271  1.0000
  H   H126      1.0  0.19159  0.66221  0.20526  1.0000
  Cu  Cu15      1.0  0.19343  0.59395  0.13351  1.0000
  C   C331      1.0  0.24002  0.35865  0.79209  1.0000
  C   C332      1.0  0.22246  0.34340  0.78487  1.0000
  C   C333      1.0  0.20453  0.34896  0.79999  1.0000
  C   C334      1.0  0.20413  0.36978  0.82238  1.0000
  C   C335      1.0  0.22173  0.38509  0.82964  1.0000
  C   C336      1.0  0.23964  0.37948  0.81447  1.0000
  O   O109      1.0  0.25761  0.35320  0.77726  1.0000
  O   O110      1.0  0.22283  0.32298  0.76293  1.0000
  H   H127      1.0  0.19155  0.33764  0.79461  1.0000
  O   O111      1.0  0.18648  0.37517  0.83717  1.0000
  O   O112      1.0  0.22145  0.40558  0.85161  1.0000
  H   H128      1.0  0.25264  0.39077  0.81982  1.0000
  Cu  Cu16      1.0  0.19320  0.40585  0.86640  1.0000
  Cu  Cu17      1.0  0.00010  0.00010  0.00010  1.0000
  C   C337      1.0  0.24361  0.75000  0.27626  1.0000
  C   C338      1.0  0.24680  0.77403  0.26313  1.0000
  C   C339      1.0  0.25320  0.77402  0.23687  1.0000
  C   C340      1.0  0.25639  0.75000  0.22374  1.0000
  C   C341      1.0  0.25320  0.72598  0.23687  1.0000
  C   C342      1.0  0.24680  0.72598  0.26313  1.0000
  H   H129      1.0  0.23881  0.75000  0.29596  1.0000
  O   O113      1.0  0.24393  0.79565  0.27495  1.0000
  O   O114      1.0  0.25607  0.79565  0.22505  1.0000
  H   H130      1.0  0.26119  0.75000  0.20404  1.0000
  O   O115      1.0  0.25607  0.70436  0.22505  1.0000
  O   O116      1.0  0.24393  0.70436  0.27495  1.0000
  Cu  Cu18      1.0  0.50000  0.00010  0.50000  1.0000
  C   C343      1.0  0.25639  0.25000  0.77626  1.0000
  C   C344      1.0  0.25320  0.22598  0.76313  1.0000
  C   C345      1.0  0.24680  0.22598  0.73687  1.0000
  C   C346      1.0  0.24361  0.25000  0.72374  1.0000
  C   C347      1.0  0.24680  0.27402  0.73687  1.0000
  C   C348      1.0  0.25320  0.27402  0.76313  1.0000
  H   H131      1.0  0.26119  0.25000  0.79596  1.0000
  O   O117      1.0  0.25607  0.20436  0.77495  1.0000
  O   O118      1.0  0.24393  0.20436  0.72505  1.0000
  H   H132      1.0  0.23881  0.25000  0.70404  1.0000
  O   O119      1.0  0.24393  0.29565  0.72505  1.0000
  O   O120      1.0  0.25607  0.29565  0.77495  1.0000
  C   C349      1.0  0.75639  0.25000  0.72374  1.0000
  C   C350      1.0  0.75320  0.22598  0.73687  1.0000
  C   C351      1.0  0.74680  0.22598  0.76313  1.0000
  C   C352      1.0  0.74361  0.25000  0.77626  1.0000
  C   C353      1.0  0.74680  0.27402  0.76313  1.0000
  C   C354      1.0  0.75320  0.27402  0.73687  1.0000
  H   H133      1.0  0.76119  0.25000  0.70404  1.0000
  O   O121      1.0  0.75607  0.20436  0.72505  1.0000
  O   O122      1.0  0.74393  0.20435  0.77495  1.0000
  H   H134      1.0  0.73881  0.25000  0.79596  1.0000
  O   O123      1.0  0.74393  0.29565  0.77495  1.0000
  O   O124      1.0  0.75607  0.29565  0.72505  1.0000
  C   C355      1.0  0.75639  0.75000  0.27626  1.0000
  C   C356      1.0  0.75320  0.72598  0.26313  1.0000
  C   C357      1.0  0.74680  0.72598  0.23687  1.0000
  C   C358      1.0  0.74361  0.75000  0.22374  1.0000
  C   C359      1.0  0.74680  0.77402  0.23687  1.0000
  C   C360      1.0  0.75320  0.77403  0.26313  1.0000
  H   H135      1.0  0.76119  0.75000  0.29596  1.0000
  O   O125      1.0  0.75607  0.70436  0.27495  1.0000
  O   O126      1.0  0.74393  0.70436  0.22505  1.0000
  H   H136      1.0  0.73881  0.75000  0.20404  1.0000
  O   O127      1.0  0.74393  0.79565  0.22505  1.0000
  O   O128      1.0  0.75607  0.79565  0.27495  1.0000
  Cu  Cu19      1.0  0.50000  0.50000  0.50000  1.0000
  Cu  Cu20      1.0  0.00010  0.50000  0.00010  1.0000
