data_image0
_chemical_formula_structural       C26H7O2H2O2HC4HO2HC26H7O2H2O2HC4HO2HC26H7O2H2O2HC4HO2HC26H7O2H2O2HC4HO2HC26H7O2H2O2HC4HO2HC26H7O2H2O2HC4HO2HC26H7O2H2O2HC4HO2HC26H7O2H2O2HC4HO2HFe8C6HO2HO2C6HO2HO2C6HO2HO2C6HO2HO2Cu4C6O2HO2HCuC6O2HO2HCuC6O2HO2HCuC6O2HO2HCuC6O2HO2HCuC6O2HO2HCuC6O2HO2HCuC6O2HO2HCuC6O2HO2HCuC6O2HO2HCuC6O2HO2HCuC6O2HO2HCuC6O2HO2HCuC6O2HO2HCuC6O2HO2HCuC6O2HO2HCu
_chemical_formula_sum              "C360 H136 O128 Fe8 Cu20"
_cell_length_a       50.4721
_cell_length_b       50.2601
_cell_length_c       73.0134
_cell_angle_alpha    90
_cell_angle_beta     90.0006
_cell_angle_gamma    90

_space_group_name_H-M_alt    "P 1"
_space_group_IT_number       1

loop_
  _space_group_symop_operation_xyz
  'x, y, z'

loop_
  _atom_site_type_symbol
  _atom_site_label
  _atom_site_symmetry_multiplicity
  _atom_site_fract_x
  _atom_site_fract_y
  _atom_site_fract_z
  _atom_site_occupancy
  C   C1        1.0  0.23243  0.27515  0.12830  1.0000
  C   C2        1.0  0.24124  0.26264  0.14656  1.0000
  C   C3        1.0  0.25886  0.23762  0.14656  1.0000
  C   C4        1.0  0.26767  0.22511  0.12830  1.0000
  C   C5        1.0  0.25886  0.23762  0.11003  1.0000
  C   C6        1.0  0.24124  0.26264  0.11003  1.0000
  C   C7        1.0  0.28528  0.20009  0.12830  1.0000
  C   C8        1.0  0.29409  0.18758  0.14655  1.0000
  C   C9        1.0  0.28528  0.20009  0.16482  1.0000
  C   C10       1.0  0.26767  0.22511  0.16483  1.0000
  C   C11       1.0  0.21481  0.30016  0.12830  1.0000
  C   C12       1.0  0.20601  0.31267  0.14656  1.0000
  C   C13       1.0  0.21482  0.30016  0.16483  1.0000
  C   C14       1.0  0.23243  0.27514  0.16483  1.0000
  C   C15       1.0  0.23243  0.27515  0.09176  1.0000
  C   C16       1.0  0.24124  0.26264  0.07350  1.0000
  C   C17       1.0  0.25886  0.23763  0.07350  1.0000
  C   C18       1.0  0.26766  0.22512  0.09176  1.0000
  C   C19       1.0  0.26766  0.22512  0.05523  1.0000
  C   C20       1.0  0.25885  0.23763  0.03696  1.0000
  C   C21       1.0  0.24124  0.26265  0.03696  1.0000
  C   C22       1.0  0.23243  0.27515  0.05523  1.0000
  C   C23       1.0  0.29409  0.18758  0.18309  1.0000
  C   C24       1.0  0.31171  0.16256  0.18309  1.0000
  C   C25       1.0  0.32052  0.15006  0.16482  1.0000
  C   C26       1.0  0.31171  0.16257  0.14655  1.0000
  H   H1        1.0  0.29180  0.19084  0.11476  1.0000
  H   H2        1.0  0.26115  0.23437  0.17834  1.0000
  H   H3        1.0  0.20829  0.30942  0.11477  1.0000
  H   H4        1.0  0.23895  0.26588  0.17835  1.0000
  H   H5        1.0  0.21939  0.29367  0.09176  1.0000
  H   H6        1.0  0.28071  0.20660  0.09176  1.0000
  H   H7        1.0  0.28070  0.20660  0.05523  1.0000
  O   O1        1.0  0.26743  0.22545  0.01917  1.0000
  O   O2        1.0  0.23266  0.27483  0.01917  1.0000
  H   H8        1.0  0.21939  0.29367  0.05523  1.0000
  H   H9        1.0  0.28757  0.19684  0.19661  1.0000
  O   O3        1.0  0.32029  0.15038  0.20088  1.0000
  O   O4        1.0  0.33768  0.12569  0.16482  1.0000
  H   H10       1.0  0.31823  0.15331  0.13303  1.0000
  C   C27       1.0  0.20601  0.31267  0.18310  1.0000
  C   C28       1.0  0.18839  0.33768  0.18310  1.0000
  C   C29       1.0  0.17958  0.35020  0.16483  1.0000
  C   C30       1.0  0.18839  0.33769  0.14656  1.0000
  H   H11       1.0  0.21253  0.30341  0.19662  1.0000
  O   O5        1.0  0.17981  0.34987  0.20089  1.0000
  O   O6        1.0  0.16242  0.37456  0.16483  1.0000
  H   H12       1.0  0.18187  0.34695  0.13304  1.0000
  C   C31       1.0  0.73238  0.77509  0.12831  1.0000
  C   C32       1.0  0.74118  0.76258  0.14656  1.0000
  C   C33       1.0  0.75880  0.73756  0.14656  1.0000
  C   C34       1.0  0.76761  0.72505  0.12831  1.0000
  C   C35       1.0  0.75880  0.73756  0.11004  1.0000
  C   C36       1.0  0.74118  0.76258  0.11004  1.0000
  C   C37       1.0  0.78523  0.70004  0.12831  1.0000
  C   C38       1.0  0.79404  0.68753  0.14656  1.0000
  C   C39       1.0  0.78523  0.70004  0.16483  1.0000
  C   C40       1.0  0.76761  0.72505  0.16483  1.0000
  C   C41       1.0  0.71476  0.80010  0.12831  1.0000
  C   C42       1.0  0.70595  0.81261  0.14656  1.0000
  C   C43       1.0  0.71476  0.80010  0.16483  1.0000
  C   C44       1.0  0.73238  0.77509  0.16483  1.0000
  C   C45       1.0  0.73237  0.77509  0.09176  1.0000
  C   C46       1.0  0.74118  0.76258  0.07351  1.0000
  C   C47       1.0  0.75880  0.73756  0.07351  1.0000
  C   C48       1.0  0.76761  0.72505  0.09176  1.0000
  C   C49       1.0  0.76761  0.72505  0.05524  1.0000
  C   C50       1.0  0.75880  0.73756  0.03697  1.0000
  C   C51       1.0  0.74118  0.76258  0.03697  1.0000
  C   C52       1.0  0.73237  0.77509  0.05524  1.0000
  C   C53       1.0  0.79404  0.68753  0.18310  1.0000
  C   C54       1.0  0.81165  0.66251  0.18310  1.0000
  C   C55       1.0  0.82046  0.65000  0.16483  1.0000
  C   C56       1.0  0.81165  0.66251  0.14656  1.0000
  H   H13       1.0  0.79175  0.69078  0.11477  1.0000
  H   H14       1.0  0.76109  0.73431  0.17835  1.0000
  H   H15       1.0  0.70824  0.80936  0.11477  1.0000
  H   H16       1.0  0.73890  0.76583  0.17835  1.0000
  H   H17       1.0  0.71933  0.79361  0.09176  1.0000
  H   H18       1.0  0.78065  0.70653  0.09176  1.0000
  H   H19       1.0  0.78065  0.70653  0.05524  1.0000
  O   O7        1.0  0.76738  0.72538  0.01917  1.0000
  O   O8        1.0  0.73260  0.77476  0.01918  1.0000
  H   H20       1.0  0.71933  0.79361  0.05524  1.0000
  H   H21       1.0  0.78752  0.69679  0.19662  1.0000
  O   O9        1.0  0.82023  0.65033  0.20089  1.0000
  O   O10       1.0  0.83762  0.62563  0.16483  1.0000
  H   H22       1.0  0.81817  0.65325  0.13304  1.0000
  C   C57       1.0  0.70595  0.81261  0.18310  1.0000
  C   C58       1.0  0.68833  0.83763  0.18310  1.0000
  C   C59       1.0  0.67953  0.85014  0.16483  1.0000
  C   C60       1.0  0.68833  0.83763  0.14656  1.0000
  H   H23       1.0  0.71247  0.80335  0.19662  1.0000
  O   O11       1.0  0.67976  0.84981  0.20090  1.0000
  O   O12       1.0  0.66237  0.87451  0.16483  1.0000
  H   H24       1.0  0.68181  0.84689  0.13304  1.0000
  C   C61       1.0  0.23235  0.72510  0.37170  1.0000
  C   C62       1.0  0.24116  0.73760  0.35344  1.0000
  C   C63       1.0  0.25877  0.76262  0.35344  1.0000
  C   C64       1.0  0.26758  0.77513  0.37169  1.0000
  C   C65       1.0  0.25877  0.76262  0.38997  1.0000
  C   C66       1.0  0.24116  0.73761  0.38997  1.0000
  C   C67       1.0  0.28520  0.80015  0.37169  1.0000
  C   C68       1.0  0.29401  0.81266  0.35344  1.0000
  C   C69       1.0  0.28520  0.80015  0.33517  1.0000
  C   C70       1.0  0.26758  0.77513  0.33517  1.0000
  C   C71       1.0  0.21473  0.70008  0.37170  1.0000
  C   C72       1.0  0.20592  0.68757  0.35344  1.0000
  C   C73       1.0  0.21473  0.70008  0.33517  1.0000
  C   C74       1.0  0.23235  0.72509  0.33517  1.0000
  C   C75       1.0  0.23235  0.72510  0.40824  1.0000
  C   C76       1.0  0.24116  0.73761  0.42649  1.0000
  C   C77       1.0  0.25878  0.76263  0.42649  1.0000
  C   C78       1.0  0.26758  0.77513  0.40824  1.0000
  C   C79       1.0  0.26759  0.77514  0.44476  1.0000
  C   C80       1.0  0.25878  0.76263  0.46303  1.0000
  C   C81       1.0  0.24116  0.73761  0.46304  1.0000
  C   C82       1.0  0.23235  0.72510  0.44477  1.0000
  C   C83       1.0  0.29400  0.81265  0.31689  1.0000
  C   C84       1.0  0.31162  0.83767  0.31689  1.0000
  C   C85       1.0  0.32043  0.85018  0.33516  1.0000
  C   C86       1.0  0.31162  0.83767  0.35343  1.0000
  H   H25       1.0  0.29172  0.80941  0.38522  1.0000
  H   H26       1.0  0.26106  0.76587  0.32165  1.0000
  H   H27       1.0  0.20821  0.69082  0.38523  1.0000
  H   H28       1.0  0.23887  0.73435  0.32165  1.0000
  H   H29       1.0  0.21931  0.70658  0.40824  1.0000
  H   H30       1.0  0.28062  0.79365  0.40823  1.0000
  H   H31       1.0  0.28063  0.79366  0.44476  1.0000
  O   O13       1.0  0.26736  0.77481  0.48083  1.0000
  O   O14       1.0  0.23258  0.72543  0.48083  1.0000
  H   H32       1.0  0.21931  0.70658  0.44477  1.0000
  H   H33       1.0  0.28748  0.80339  0.30338  1.0000
  O   O15       1.0  0.32020  0.84985  0.29910  1.0000
  O   O16       1.0  0.33759  0.87455  0.33516  1.0000
  H   H34       1.0  0.31814  0.84693  0.36695  1.0000
  C   C87       1.0  0.20592  0.68757  0.31690  1.0000
  C   C88       1.0  0.18830  0.66255  0.31690  1.0000
  C   C89       1.0  0.17950  0.65004  0.33517  1.0000
  C   C90       1.0  0.18830  0.66255  0.35344  1.0000
  H   H35       1.0  0.21244  0.69683  0.30338  1.0000
  O   O17       1.0  0.17972  0.65036  0.29911  1.0000
  O   O18       1.0  0.16234  0.62567  0.33517  1.0000
  H   H36       1.0  0.18178  0.65329  0.36696  1.0000
  C   C91       1.0  0.73237  0.22505  0.37169  1.0000
  C   C92       1.0  0.74118  0.23756  0.35344  1.0000
  C   C93       1.0  0.75879  0.26258  0.35344  1.0000
  C   C94       1.0  0.76760  0.27509  0.37169  1.0000
  C   C95       1.0  0.75879  0.26258  0.38997  1.0000
  C   C96       1.0  0.74118  0.23756  0.38997  1.0000
  C   C97       1.0  0.78522  0.30011  0.37169  1.0000
  C   C98       1.0  0.79403  0.31261  0.35344  1.0000
  C   C99       1.0  0.78522  0.30010  0.33517  1.0000
  C   C100      1.0  0.76760  0.27509  0.33517  1.0000
  C   C101      1.0  0.71475  0.20004  0.37170  1.0000
  C   C102      1.0  0.70594  0.18753  0.35344  1.0000
  C   C103      1.0  0.71475  0.20003  0.33517  1.0000
  C   C104      1.0  0.73237  0.22505  0.33517  1.0000
  C   C105      1.0  0.73237  0.22505  0.40824  1.0000
  C   C106      1.0  0.74118  0.23756  0.42649  1.0000
  C   C107      1.0  0.75879  0.26258  0.42649  1.0000
  C   C108      1.0  0.76760  0.27509  0.40824  1.0000
  C   C109      1.0  0.76760  0.27509  0.44476  1.0000
  C   C110      1.0  0.75879  0.26258  0.46303  1.0000
  C   C111      1.0  0.74118  0.23756  0.46303  1.0000
  C   C112      1.0  0.73237  0.22505  0.44476  1.0000
  C   C113      1.0  0.79403  0.31261  0.31690  1.0000
  C   C114      1.0  0.81164  0.33763  0.31690  1.0000
  C   C115      1.0  0.82045  0.35014  0.33517  1.0000
  C   C116      1.0  0.81164  0.33763  0.35344  1.0000
  H   H37       1.0  0.79174  0.30937  0.38523  1.0000
  H   H38       1.0  0.76108  0.26583  0.32165  1.0000
  H   H39       1.0  0.70823  0.19078  0.38523  1.0000
  H   H40       1.0  0.73889  0.23431  0.32165  1.0000
  H   H41       1.0  0.71933  0.20653  0.40824  1.0000
  H   H42       1.0  0.78064  0.29361  0.40824  1.0000
  H   H43       1.0  0.78064  0.29361  0.44476  1.0000
  O   O19       1.0  0.76737  0.27477  0.48083  1.0000
  O   O20       1.0  0.73260  0.22538  0.48083  1.0000
  H   H44       1.0  0.71933  0.20654  0.44476  1.0000
  H   H45       1.0  0.78751  0.30335  0.30338  1.0000
  O   O21       1.0  0.82022  0.34981  0.29911  1.0000
  O   O22       1.0  0.83761  0.37451  0.33517  1.0000
  H   H46       1.0  0.81816  0.34689  0.36696  1.0000
  C   C117      1.0  0.70594  0.18753  0.31690  1.0000
  C   C118      1.0  0.68833  0.16251  0.31690  1.0000
  C   C119      1.0  0.67952  0.15000  0.33517  1.0000
  C   C120      1.0  0.68833  0.16251  0.35344  1.0000
  H   H47       1.0  0.71246  0.19679  0.30338  1.0000
  O   O23       1.0  0.67975  0.15032  0.29911  1.0000
  O   O24       1.0  0.66236  0.12563  0.33517  1.0000
  H   H48       1.0  0.68181  0.15325  0.36696  1.0000
  C   C121      1.0  0.75880  0.73756  0.85343  1.0000
  C   C122      1.0  0.76760  0.72506  0.87169  1.0000
  C   C123      1.0  0.75879  0.73756  0.88996  1.0000
  C   C124      1.0  0.74118  0.76257  0.88997  1.0000
  C   C125      1.0  0.73237  0.77509  0.87170  1.0000
  C   C126      1.0  0.74118  0.76258  0.85343  1.0000
  C   C127      1.0  0.73237  0.77508  0.90823  1.0000
  C   C128      1.0  0.74117  0.76258  0.92649  1.0000
  C   C129      1.0  0.75879  0.73756  0.92650  1.0000
  C   C130      1.0  0.76760  0.72505  0.90823  1.0000
  C   C131      1.0  0.76761  0.72505  0.83517  1.0000
  C   C132      1.0  0.78522  0.70004  0.83516  1.0000
  C   C133      1.0  0.79403  0.68753  0.85343  1.0000
  C   C134      1.0  0.78522  0.70004  0.87170  1.0000
  C   C135      1.0  0.73237  0.77509  0.83516  1.0000
  C   C136      1.0  0.71476  0.80010  0.83517  1.0000
  C   C137      1.0  0.70595  0.81261  0.85344  1.0000
  C   C138      1.0  0.71475  0.80011  0.87170  1.0000
  C   C139      1.0  0.68833  0.83763  0.85344  1.0000
  C   C140      1.0  0.67952  0.85015  0.83517  1.0000
  C   C141      1.0  0.68832  0.83764  0.81690  1.0000
  C   C142      1.0  0.70594  0.81262  0.81690  1.0000
  C   C143      1.0  0.76761  0.72504  0.94476  1.0000
  C   C144      1.0  0.75880  0.73755  0.96303  1.0000
  C   C145      1.0  0.74118  0.76257  0.96303  1.0000
  C   C146      1.0  0.73237  0.77509  0.94476  1.0000
  H   H49       1.0  0.71932  0.79361  0.90823  1.0000
  H   H50       1.0  0.78064  0.70653  0.90823  1.0000
  H   H51       1.0  0.76108  0.73432  0.82164  1.0000
  H   H52       1.0  0.79174  0.69078  0.88522  1.0000
  H   H53       1.0  0.73889  0.76584  0.82164  1.0000
  H   H54       1.0  0.70823  0.80937  0.88522  1.0000
  H   H55       1.0  0.68181  0.84689  0.86696  1.0000
  O   O25       1.0  0.66236  0.87451  0.83517  1.0000
  O   O26       1.0  0.67974  0.84982  0.79911  1.0000
  H   H56       1.0  0.71246  0.80336  0.80338  1.0000
  H   H57       1.0  0.78064  0.70653  0.94476  1.0000
  O   O27       1.0  0.76738  0.72536  0.98082  1.0000
  O   O28       1.0  0.73260  0.77475  0.98082  1.0000
  H   H58       1.0  0.71933  0.79360  0.94476  1.0000
  C   C147      1.0  0.81165  0.66251  0.85343  1.0000
  C   C148      1.0  0.82046  0.65000  0.83516  1.0000
  C   C149      1.0  0.81164  0.66251  0.81690  1.0000
  C   C150      1.0  0.79402  0.68754  0.81689  1.0000
  H   H59       1.0  0.81817  0.65325  0.86695  1.0000
  O   O29       1.0  0.83761  0.62563  0.83516  1.0000
  O   O30       1.0  0.82022  0.65033  0.79910  1.0000
  H   H60       1.0  0.78751  0.69679  0.80338  1.0000
  C   C151      1.0  0.25880  0.23759  0.85344  1.0000
  C   C152      1.0  0.26761  0.22509  0.87170  1.0000
  C   C153      1.0  0.25880  0.23760  0.88997  1.0000
  C   C154      1.0  0.24119  0.26260  0.88997  1.0000
  C   C155      1.0  0.23238  0.27512  0.87171  1.0000
  C   C156      1.0  0.24118  0.26261  0.85344  1.0000
  C   C157      1.0  0.23239  0.27511  0.90824  1.0000
  C   C158      1.0  0.24119  0.26262  0.92650  1.0000
  C   C159      1.0  0.25881  0.23759  0.92650  1.0000
  C   C160      1.0  0.26762  0.22508  0.90824  1.0000
  C   C161      1.0  0.26761  0.22508  0.83517  1.0000
  C   C162      1.0  0.28522  0.20007  0.83517  1.0000
  C   C163      1.0  0.29404  0.18756  0.85344  1.0000
  C   C164      1.0  0.28523  0.20007  0.87170  1.0000
  C   C165      1.0  0.23237  0.27512  0.83517  1.0000
  C   C166      1.0  0.21476  0.30013  0.83518  1.0000
  C   C167      1.0  0.20595  0.31264  0.85344  1.0000
  C   C168      1.0  0.21476  0.30014  0.87170  1.0000
  C   C169      1.0  0.18833  0.33766  0.85344  1.0000
  C   C170      1.0  0.17952  0.35017  0.83517  1.0000
  C   C171      1.0  0.18833  0.33766  0.81691  1.0000
  C   C172      1.0  0.20595  0.31264  0.81691  1.0000
  C   C173      1.0  0.26762  0.22508  0.94477  1.0000
  C   C174      1.0  0.25882  0.23759  0.96304  1.0000
  C   C175      1.0  0.24120  0.26261  0.96304  1.0000
  C   C176      1.0  0.23238  0.27512  0.94477  1.0000
  H   H61       1.0  0.21934  0.29364  0.90823  1.0000
  H   H62       1.0  0.28065  0.20657  0.90823  1.0000
  H   H63       1.0  0.26108  0.23434  0.82165  1.0000
  H   H64       1.0  0.29175  0.19081  0.88522  1.0000
  H   H65       1.0  0.23889  0.26586  0.82165  1.0000
  H   H66       1.0  0.20824  0.30940  0.88523  1.0000
  H   H67       1.0  0.18181  0.34692  0.86696  1.0000
  O   O31       1.0  0.16236  0.37454  0.83517  1.0000
  O   O32       1.0  0.17974  0.34984  0.79911  1.0000
  H   H68       1.0  0.21246  0.30338  0.80339  1.0000
  H   H69       1.0  0.28066  0.20657  0.94477  1.0000
  O   O33       1.0  0.26740  0.22541  0.98083  1.0000
  O   O34       1.0  0.23262  0.27480  0.98083  1.0000
  H   H70       1.0  0.21934  0.29364  0.94477  1.0000
  C   C177      1.0  0.31166  0.16253  0.85344  1.0000
  C   C178      1.0  0.32046  0.15002  0.83517  1.0000
  C   C179      1.0  0.31165  0.16254  0.81690  1.0000
  C   C180      1.0  0.29403  0.18756  0.81690  1.0000
  H   H71       1.0  0.31818  0.15328  0.86696  1.0000
  O   O35       1.0  0.33762  0.12566  0.83517  1.0000
  O   O36       1.0  0.32023  0.15035  0.79911  1.0000
  H   H72       1.0  0.28751  0.19681  0.80338  1.0000
  C   C181      1.0  0.75881  0.26260  0.64656  1.0000
  C   C182      1.0  0.76761  0.27510  0.62830  1.0000
  C   C183      1.0  0.75880  0.26259  0.61004  1.0000
  C   C184      1.0  0.74119  0.23758  0.61003  1.0000
  C   C185      1.0  0.73238  0.22507  0.62830  1.0000
  C   C186      1.0  0.74119  0.23758  0.64657  1.0000
  C   C187      1.0  0.73239  0.22507  0.59177  1.0000
  C   C188      1.0  0.74119  0.23757  0.57351  1.0000
  C   C189      1.0  0.75881  0.26259  0.57350  1.0000
  C   C190      1.0  0.76762  0.27510  0.59177  1.0000
  C   C191      1.0  0.76762  0.27511  0.66483  1.0000
  C   C192      1.0  0.78523  0.30012  0.66483  1.0000
  C   C193      1.0  0.79404  0.31263  0.64657  1.0000
  C   C194      1.0  0.78523  0.30012  0.62830  1.0000
  C   C195      1.0  0.73238  0.22507  0.66484  1.0000
  C   C196      1.0  0.71477  0.20006  0.66483  1.0000
  C   C197      1.0  0.70596  0.18755  0.64657  1.0000
  C   C198      1.0  0.71476  0.20005  0.62831  1.0000
  C   C199      1.0  0.68834  0.16253  0.64657  1.0000
  C   C200      1.0  0.67953  0.15001  0.66484  1.0000
  C   C201      1.0  0.68834  0.16252  0.68310  1.0000
  C   C202      1.0  0.70596  0.18755  0.68310  1.0000
  C   C203      1.0  0.76762  0.27510  0.55523  1.0000
  C   C204      1.0  0.75881  0.26259  0.53697  1.0000
  C   C205      1.0  0.74119  0.23757  0.53697  1.0000
  C   C206      1.0  0.73238  0.22506  0.55524  1.0000
  H   H73       1.0  0.71934  0.20654  0.59177  1.0000
  H   H74       1.0  0.78065  0.29361  0.59177  1.0000
  H   H75       1.0  0.76109  0.26584  0.67836  1.0000
  H   H76       1.0  0.79175  0.30937  0.61478  1.0000
  H   H77       1.0  0.73890  0.23433  0.67836  1.0000
  H   H78       1.0  0.70824  0.19079  0.61478  1.0000
  H   H79       1.0  0.68182  0.15327  0.63305  1.0000
  O   O37       1.0  0.66237  0.12565  0.66484  1.0000
  O   O38       1.0  0.67976  0.15034  0.70090  1.0000
  H   H80       1.0  0.71248  0.19681  0.69662  1.0000
  H   H81       1.0  0.78066  0.29362  0.55523  1.0000
  O   O39       1.0  0.76739  0.27477  0.51918  1.0000
  O   O40       1.0  0.73261  0.22538  0.51918  1.0000
  H   H82       1.0  0.71934  0.20654  0.55524  1.0000
  C   C207      1.0  0.81166  0.33765  0.64656  1.0000
  C   C208      1.0  0.82047  0.35016  0.66483  1.0000
  C   C209      1.0  0.81166  0.33765  0.68310  1.0000
  C   C210      1.0  0.79404  0.31263  0.68310  1.0000
  H   H83       1.0  0.81818  0.34691  0.63304  1.0000
  O   O41       1.0  0.83763  0.37453  0.66483  1.0000
  O   O42       1.0  0.82024  0.34983  0.70089  1.0000
  H   H84       1.0  0.78752  0.30337  0.69662  1.0000
  C   C211      1.0  0.25884  0.76261  0.64656  1.0000
  C   C212      1.0  0.26764  0.77511  0.62830  1.0000
  C   C213      1.0  0.25883  0.76260  0.61004  1.0000
  C   C214      1.0  0.24122  0.73759  0.61003  1.0000
  C   C215      1.0  0.23241  0.72508  0.62830  1.0000
  C   C216      1.0  0.24122  0.73759  0.64657  1.0000
  C   C217      1.0  0.23241  0.72509  0.59177  1.0000
  C   C218      1.0  0.24121  0.73759  0.57350  1.0000
  C   C219      1.0  0.25883  0.76261  0.57350  1.0000
  C   C220      1.0  0.26764  0.77512  0.59177  1.0000
  C   C221      1.0  0.26765  0.77512  0.66483  1.0000
  C   C222      1.0  0.28526  0.80013  0.66483  1.0000
  C   C223      1.0  0.29407  0.81264  0.64657  1.0000
  C   C224      1.0  0.28526  0.80013  0.62830  1.0000
  C   C225      1.0  0.23241  0.72508  0.66484  1.0000
  C   C226      1.0  0.21480  0.70007  0.66483  1.0000
  C   C227      1.0  0.20599  0.68756  0.64656  1.0000
  C   C228      1.0  0.21479  0.70006  0.62830  1.0000
  C   C229      1.0  0.18837  0.66254  0.64657  1.0000
  C   C230      1.0  0.17956  0.65002  0.66484  1.0000
  C   C231      1.0  0.18837  0.66253  0.68310  1.0000
  C   C232      1.0  0.20599  0.68755  0.68310  1.0000
  C   C233      1.0  0.26764  0.77512  0.55523  1.0000
  C   C234      1.0  0.25883  0.76261  0.53697  1.0000
  C   C235      1.0  0.24121  0.73759  0.53697  1.0000
  C   C236      1.0  0.23240  0.72508  0.55524  1.0000
  H   H85       1.0  0.21936  0.70656  0.59177  1.0000
  H   H86       1.0  0.28068  0.79363  0.59177  1.0000
  H   H87       1.0  0.26112  0.76585  0.67836  1.0000
  H   H88       1.0  0.29178  0.80939  0.61478  1.0000
  H   H89       1.0  0.23893  0.73433  0.67836  1.0000
  H   H90       1.0  0.20827  0.69080  0.61478  1.0000
  H   H91       1.0  0.18185  0.65328  0.63305  1.0000
  O   O43       1.0  0.16240  0.62566  0.66484  1.0000
  O   O44       1.0  0.17979  0.65035  0.70089  1.0000
  H   H92       1.0  0.21251  0.69681  0.69662  1.0000
  H   H93       1.0  0.28068  0.79364  0.55523  1.0000
  O   O45       1.0  0.26741  0.77480  0.51918  1.0000
  O   O46       1.0  0.23263  0.72541  0.51918  1.0000
  H   H94       1.0  0.21936  0.70656  0.55524  1.0000
  C   C237      1.0  0.31169  0.83766  0.64656  1.0000
  C   C238      1.0  0.32050  0.85017  0.66483  1.0000
  C   C239      1.0  0.31169  0.83766  0.68310  1.0000
  C   C240      1.0  0.29407  0.81264  0.68310  1.0000
  H   H95       1.0  0.31821  0.84692  0.63304  1.0000
  O   O47       1.0  0.33766  0.87454  0.66483  1.0000
  O   O48       1.0  0.32027  0.84984  0.70089  1.0000
  H   H96       1.0  0.28755  0.80338  0.69662  1.0000
  Fe  Fe1       1.0  0.42605  0.00010  0.24999  1.0000
  Fe  Fe2       1.0  0.57395  0.00010  0.25000  1.0000
  Fe  Fe3       1.0  0.57395  0.00010  0.75001  1.0000
  Fe  Fe4       1.0  0.42605  0.00010  0.74999  1.0000
  Fe  Fe5       1.0  0.92604  0.50007  0.25000  1.0000
  Fe  Fe6       1.0  0.07396  0.50007  0.25002  1.0000
  Fe  Fe7       1.0  0.07396  0.50011  0.75000  1.0000
  Fe  Fe8       1.0  0.92604  0.50010  0.74999  1.0000
  C   C241      1.0  0.50000  0.02796  0.24999  1.0000
  C   C242      1.0  0.47598  0.01403  0.24999  1.0000
  C   C243      1.0  0.47598  0.98618  0.24999  1.0000
  C   C244      1.0  0.50000  0.97225  0.24999  1.0000
  C   C245      1.0  0.52402  0.98617  0.25000  1.0000
  C   C246      1.0  0.52402  0.01403  0.25000  1.0000
  H   H97       1.0  0.50000  0.04885  0.24999  1.0000
  O   O49       1.0  0.45436  0.02657  0.24999  1.0000
  O   O50       1.0  0.45436  0.97364  0.24999  1.0000
  H   H98       1.0  0.50000  0.95136  0.24999  1.0000
  O   O51       1.0  0.54564  0.97364  0.25000  1.0000
  O   O52       1.0  0.54564  0.02656  0.25000  1.0000
  C   C247      1.0  0.50000  0.02796  0.75000  1.0000
  C   C248      1.0  0.47598  0.01404  0.75000  1.0000
  C   C249      1.0  0.47598  0.98619  0.75000  1.0000
  C   C250      1.0  0.50000  0.97225  0.75000  1.0000
  C   C251      1.0  0.52402  0.98618  0.75001  1.0000
  C   C252      1.0  0.52402  0.01403  0.75001  1.0000
  H   H99       1.0  0.50001  0.04886  0.75000  1.0000
  O   O53       1.0  0.45436  0.02658  0.75000  1.0000
  O   O54       1.0  0.45435  0.97366  0.74999  1.0000
  H   H100      1.0  0.49999  0.95136  0.75000  1.0000
  O   O55       1.0  0.54564  0.97364  0.75001  1.0000
  O   O56       1.0  0.54565  0.02656  0.75001  1.0000
  C   C253      1.0  0.00010  0.52792  0.25001  1.0000
  C   C254      1.0  0.02402  0.51400  0.25001  1.0000
  C   C255      1.0  0.02402  0.48614  0.25002  1.0000
  C   C256      1.0  0.99990  0.47221  0.25001  1.0000
  C   C257      1.0  0.97598  0.48614  0.25001  1.0000
  C   C258      1.0  0.97598  0.51400  0.25001  1.0000
  H   H101      1.0  0.00010  0.54882  0.25001  1.0000
  O   O57       1.0  0.04564  0.52653  0.25002  1.0000
  O   O58       1.0  0.04564  0.47361  0.25002  1.0000
  H   H102      1.0  0.99990  0.45132  0.25001  1.0000
  O   O59       1.0  0.95436  0.47361  0.25001  1.0000
  O   O60       1.0  0.95436  0.52653  0.25000  1.0000
  C   C259      1.0  0.99990  0.52796  0.74999  1.0000
  C   C260      1.0  0.97598  0.51403  0.74999  1.0000
  C   C261      1.0  0.97598  0.48617  0.74999  1.0000
  C   C262      1.0  0.00010  0.47225  0.74999  1.0000
  C   C263      1.0  0.02402  0.48618  0.74999  1.0000
  C   C264      1.0  0.02402  0.51403  0.74999  1.0000
  H   H103      1.0  0.99990  0.54885  0.74999  1.0000
  O   O61       1.0  0.95436  0.52656  0.74999  1.0000
  O   O62       1.0  0.95436  0.47364  0.74999  1.0000
  H   H104      1.0  0.00010  0.45136  0.74999  1.0000
  O   O63       1.0  0.04564  0.47365  0.75000  1.0000
  O   O64       1.0  0.04564  0.52657  0.75000  1.0000
  Cu  Cu1       1.0  0.25003  0.25012  0.99990  1.0000
  Cu  Cu2       1.0  0.74999  0.75007  0.99990  1.0000
  Cu  Cu3       1.0  0.24999  0.75011  0.50000  1.0000
  Cu  Cu4       1.0  0.74999  0.25008  0.50000  1.0000
  C   C265      1.0  0.39135  0.04221  0.24000  1.0000
  C   C266      1.0  0.40660  0.03498  0.22244  1.0000
  C   C267      1.0  0.40105  0.05010  0.20452  1.0000
  C   C268      1.0  0.38024  0.07249  0.20411  1.0000
  C   C269      1.0  0.36493  0.07977  0.22171  1.0000
  C   C270      1.0  0.37053  0.06459  0.23962  1.0000
  O   O65       1.0  0.39679  0.02737  0.25759  1.0000
  O   O66       1.0  0.42701  0.01303  0.22282  1.0000
  H   H105      1.0  0.41237  0.04471  0.19154  1.0000
  O   O67       1.0  0.37486  0.08729  0.18647  1.0000
  O   O68       1.0  0.34445  0.10174  0.22143  1.0000
  H   H106      1.0  0.35924  0.06995  0.25262  1.0000
  Cu  Cu5       1.0  0.34420  0.11653  0.19319  1.0000
  C   C271      1.0  0.59346  0.96520  0.22250  1.0000
  C   C272      1.0  0.60870  0.95799  0.24007  1.0000
  C   C273      1.0  0.62953  0.93564  0.23975  1.0000
  C   C274      1.0  0.63518  0.92044  0.22186  1.0000
  C   C275      1.0  0.61991  0.92765  0.20423  1.0000
  C   C276      1.0  0.59908  0.95003  0.20460  1.0000
  O   O69       1.0  0.57302  0.98713  0.22281  1.0000
  O   O70       1.0  0.60319  0.97287  0.25762  1.0000
  H   H107      1.0  0.64079  0.93033  0.25277  1.0000
  O   O71       1.0  0.65567  0.89849  0.22162  1.0000
  O   O72       1.0  0.62534  0.91281  0.18660  1.0000
  H   H108      1.0  0.58780  0.95536  0.19159  1.0000
  Cu  Cu6       1.0  0.65605  0.88361  0.19343  1.0000
  C   C277      1.0  0.40654  0.96521  0.27749  1.0000
  C   C278      1.0  0.39129  0.95800  0.25992  1.0000
  C   C279      1.0  0.37045  0.93565  0.26024  1.0000
  C   C280      1.0  0.36480  0.92046  0.27813  1.0000
  C   C281      1.0  0.38007  0.92767  0.29576  1.0000
  C   C282      1.0  0.40091  0.95004  0.29539  1.0000
  O   O73       1.0  0.42698  0.98713  0.27717  1.0000
  O   O74       1.0  0.39681  0.97287  0.24237  1.0000
  H   H109      1.0  0.35920  0.93035  0.24722  1.0000
  O   O75       1.0  0.34431  0.89852  0.27838  1.0000
  O   O76       1.0  0.37464  0.91283  0.31340  1.0000
  H   H110      1.0  0.41219  0.95537  0.30840  1.0000
  Cu  Cu7       1.0  0.34392  0.88364  0.30657  1.0000
  C   C283      1.0  0.60866  0.04220  0.25998  1.0000
  C   C284      1.0  0.59341  0.03497  0.27754  1.0000
  C   C285      1.0  0.59896  0.05009  0.29547  1.0000
  C   C286      1.0  0.61978  0.07248  0.29588  1.0000
  C   C287      1.0  0.63509  0.07975  0.27827  1.0000
  C   C288      1.0  0.62948  0.06457  0.26036  1.0000
  O   O77       1.0  0.60321  0.02736  0.24240  1.0000
  O   O78       1.0  0.57299  0.01303  0.27717  1.0000
  H   H111      1.0  0.58764  0.04471  0.30845  1.0000
  O   O79       1.0  0.62516  0.08727  0.31352  1.0000
  O   O80       1.0  0.65558  0.10171  0.27856  1.0000
  H   H112      1.0  0.64078  0.06993  0.24737  1.0000
  Cu  Cu8       1.0  0.65584  0.11650  0.30680  1.0000
  C   C289      1.0  0.59345  0.96520  0.77751  1.0000
  C   C290      1.0  0.60869  0.95799  0.75994  1.0000
  C   C291      1.0  0.62952  0.93563  0.76026  1.0000
  C   C292      1.0  0.63517  0.92043  0.77815  1.0000
  C   C293      1.0  0.61990  0.92764  0.79578  1.0000
  C   C294      1.0  0.59907  0.95002  0.79541  1.0000
  O   O81       1.0  0.57302  0.98713  0.77720  1.0000
  O   O82       1.0  0.60319  0.97287  0.74239  1.0000
  H   H113      1.0  0.64078  0.93033  0.74724  1.0000
  O   O83       1.0  0.65565  0.89848  0.77839  1.0000
  O   O84       1.0  0.62533  0.91280  0.81341  1.0000
  H   H114      1.0  0.58779  0.95535  0.80842  1.0000
  Cu  Cu9       1.0  0.65603  0.88359  0.80658  1.0000
  C   C295      1.0  0.39134  0.04221  0.75998  1.0000
  C   C296      1.0  0.40659  0.03498  0.77754  1.0000
  C   C297      1.0  0.40103  0.05010  0.79546  1.0000
  C   C298      1.0  0.38021  0.07248  0.79588  1.0000
  C   C299      1.0  0.36490  0.07975  0.77827  1.0000
  C   C300      1.0  0.37051  0.06459  0.76036  1.0000
  O   O85       1.0  0.39679  0.02738  0.74239  1.0000
  O   O86       1.0  0.42701  0.01305  0.77716  1.0000
  H   H115      1.0  0.41235  0.04471  0.80845  1.0000
  O   O87       1.0  0.37482  0.08727  0.81352  1.0000
  O   O88       1.0  0.34441  0.10172  0.77856  1.0000
  H   H116      1.0  0.35921  0.06994  0.74736  1.0000
  Cu  Cu10      1.0  0.34414  0.11650  0.80681  1.0000
  C   C301      1.0  0.60866  0.04219  0.74003  1.0000
  C   C302      1.0  0.59341  0.03497  0.72247  1.0000
  C   C303      1.0  0.59896  0.05008  0.70454  1.0000
  C   C304      1.0  0.61978  0.07247  0.70413  1.0000
  C   C305      1.0  0.63510  0.07974  0.72173  1.0000
  C   C306      1.0  0.62949  0.06457  0.73964  1.0000
  O   O89       1.0  0.60321  0.02736  0.75761  1.0000
  O   O90       1.0  0.57299  0.01303  0.72284  1.0000
  H   H117      1.0  0.58765  0.04470  0.69156  1.0000
  O   O91       1.0  0.62517  0.08726  0.68649  1.0000
  O   O92       1.0  0.65559  0.10170  0.72144  1.0000
  H   H118      1.0  0.64078  0.06992  0.75264  1.0000
  Cu  Cu11      1.0  0.65585  0.11648  0.69320  1.0000
  C   C307      1.0  0.40655  0.96521  0.72250  1.0000
  C   C308      1.0  0.39131  0.95800  0.74006  1.0000
  C   C309      1.0  0.37048  0.93565  0.73974  1.0000
  C   C310      1.0  0.36483  0.92044  0.72186  1.0000
  C   C311      1.0  0.38011  0.92765  0.70422  1.0000
  C   C312      1.0  0.40094  0.95004  0.70460  1.0000
  O   O93       1.0  0.42699  0.98715  0.72281  1.0000
  O   O94       1.0  0.39681  0.97289  0.75761  1.0000
  H   H119      1.0  0.35922  0.93034  0.75276  1.0000
  O   O95       1.0  0.34435  0.89849  0.72161  1.0000
  O   O96       1.0  0.37468  0.91281  0.68659  1.0000
  H   H120      1.0  0.41221  0.95537  0.69159  1.0000
  Cu  Cu12      1.0  0.34397  0.88361  0.69342  1.0000
  C   C313      1.0  0.89133  0.54217  0.24002  1.0000
  C   C314      1.0  0.90659  0.53494  0.22246  1.0000
  C   C315      1.0  0.90103  0.55006  0.20453  1.0000
  C   C316      1.0  0.88021  0.57244  0.20412  1.0000
  C   C317      1.0  0.86490  0.57971  0.22173  1.0000
  C   C318      1.0  0.87051  0.56454  0.23964  1.0000
  O   O97       1.0  0.89678  0.52733  0.25760  1.0000
  O   O98       1.0  0.92700  0.51300  0.22283  1.0000
  H   H121      1.0  0.91235  0.54467  0.19155  1.0000
  O   O99       1.0  0.87483  0.58724  0.18648  1.0000
  O   O100      1.0  0.84441  0.60168  0.22144  1.0000
  H   H122      1.0  0.85921  0.56989  0.25263  1.0000
  Cu  Cu13      1.0  0.84415  0.61646  0.19320  1.0000
  C   C319      1.0  0.09347  0.46518  0.22252  1.0000
  C   C320      1.0  0.10872  0.45797  0.24008  1.0000
  C   C321      1.0  0.12956  0.43563  0.23976  1.0000
  C   C322      1.0  0.13521  0.42043  0.22187  1.0000
  C   C323      1.0  0.11994  0.42764  0.20424  1.0000
  C   C324      1.0  0.09910  0.45002  0.20461  1.0000
  O   O101      1.0  0.07302  0.48711  0.22283  1.0000
  O   O102      1.0  0.10320  0.47284  0.25763  1.0000
  H   H123      1.0  0.14082  0.43033  0.25278  1.0000
  O   O103      1.0  0.15571  0.39849  0.22162  1.0000
  O   O104      1.0  0.12538  0.41281  0.18660  1.0000
  H   H124      1.0  0.08781  0.45535  0.19161  1.0000
  Cu  Cu14      1.0  0.15609  0.38362  0.19343  1.0000
  C   C325      1.0  0.90653  0.46517  0.27750  1.0000
  C   C326      1.0  0.89130  0.45796  0.25993  1.0000
  C   C327      1.0  0.87046  0.43561  0.26025  1.0000
  C   C328      1.0  0.86481  0.42041  0.27814  1.0000
  C   C329      1.0  0.88008  0.42762  0.29577  1.0000
  C   C330      1.0  0.90091  0.45000  0.29540  1.0000
  O   O105      1.0  0.92698  0.48710  0.27719  1.0000
  O   O106      1.0  0.89681  0.47284  0.24238  1.0000
  H   H125      1.0  0.85921  0.43031  0.24723  1.0000
  O   O107      1.0  0.84432  0.39846  0.27839  1.0000
  O   O108      1.0  0.87465  0.41278  0.31340  1.0000
  H   H126      1.0  0.91219  0.45533  0.30841  1.0000
  Cu  Cu15      1.0  0.84394  0.38358  0.30657  1.0000
  C   C331      1.0  0.10866  0.54218  0.26000  1.0000
  C   C332      1.0  0.09341  0.53495  0.27756  1.0000
  C   C333      1.0  0.09896  0.55007  0.29548  1.0000
  C   C334      1.0  0.11977  0.57247  0.29589  1.0000
  C   C335      1.0  0.13508  0.57974  0.27829  1.0000
  C   C336      1.0  0.12947  0.56456  0.26038  1.0000
  O   O109      1.0  0.10321  0.52734  0.24241  1.0000
  O   O110      1.0  0.07300  0.51301  0.27719  1.0000
  H   H127      1.0  0.08765  0.54469  0.30846  1.0000
  O   O111      1.0  0.12515  0.58727  0.31353  1.0000
  O   O112      1.0  0.15556  0.60171  0.27857  1.0000
  H   H128      1.0  0.14077  0.56992  0.24738  1.0000
  Cu  Cu16      1.0  0.15582  0.61650  0.30681  1.0000
  C   C337      1.0  0.09346  0.46521  0.77750  1.0000
  C   C338      1.0  0.10870  0.45800  0.75993  1.0000
  C   C339      1.0  0.12953  0.43564  0.76025  1.0000
  C   C340      1.0  0.13518  0.42044  0.77814  1.0000
  C   C341      1.0  0.11990  0.42765  0.79577  1.0000
  C   C342      1.0  0.09907  0.45003  0.79540  1.0000
  O   O113      1.0  0.07302  0.48714  0.77718  1.0000
  O   O114      1.0  0.10320  0.47287  0.74238  1.0000
  H   H129      1.0  0.14079  0.43034  0.74723  1.0000
  O   O115      1.0  0.15566  0.39849  0.77839  1.0000
  O   O116      1.0  0.12533  0.41281  0.81340  1.0000
  H   H130      1.0  0.08779  0.45537  0.80841  1.0000
  Cu  Cu17      1.0  0.15604  0.38361  0.80658  1.0000
  C   C343      1.0  0.89133  0.54219  0.75997  1.0000
  C   C344      1.0  0.90658  0.53496  0.77753  1.0000
  C   C345      1.0  0.90103  0.55008  0.79546  1.0000
  C   C346      1.0  0.88021  0.57246  0.79587  1.0000
  C   C347      1.0  0.86489  0.57973  0.77827  1.0000
  C   C348      1.0  0.87050  0.56456  0.76036  1.0000
  O   O117      1.0  0.89678  0.52736  0.74239  1.0000
  O   O118      1.0  0.92700  0.51303  0.77716  1.0000
  H   H131      1.0  0.91234  0.54469  0.80844  1.0000
  O   O119      1.0  0.87482  0.58725  0.81351  1.0000
  O   O120      1.0  0.84440  0.60169  0.77856  1.0000
  H   H132      1.0  0.85921  0.56991  0.74736  1.0000
  Cu  Cu18      1.0  0.84413  0.61648  0.80680  1.0000
  C   C349      1.0  0.10867  0.54220  0.74001  1.0000
  C   C350      1.0  0.09342  0.53498  0.72245  1.0000
  C   C351      1.0  0.09898  0.55009  0.70453  1.0000
  C   C352      1.0  0.11980  0.57247  0.70412  1.0000
  C   C353      1.0  0.13511  0.57974  0.72173  1.0000
  C   C354      1.0  0.12950  0.56457  0.73964  1.0000
  O   O121      1.0  0.10322  0.52737  0.75760  1.0000
  O   O122      1.0  0.07300  0.51304  0.72283  1.0000
  H   H133      1.0  0.08767  0.54471  0.69155  1.0000
  O   O123      1.0  0.12520  0.58727  0.68648  1.0000
  O   O124      1.0  0.15560  0.60171  0.72144  1.0000
  H   H134      1.0  0.14079  0.56993  0.75263  1.0000
  Cu  Cu19      1.0  0.15588  0.61649  0.69320  1.0000
  C   C355      1.0  0.90654  0.46520  0.72249  1.0000
  C   C356      1.0  0.89130  0.45798  0.74006  1.0000
  C   C357      1.0  0.87047  0.43563  0.73974  1.0000
  C   C358      1.0  0.86482  0.42043  0.72185  1.0000
  C   C359      1.0  0.88009  0.42764  0.70422  1.0000
  C   C360      1.0  0.90092  0.45002  0.70459  1.0000
  O   O125      1.0  0.92698  0.48713  0.72280  1.0000
  O   O126      1.0  0.89681  0.47286  0.75761  1.0000
  H   H135      1.0  0.85921  0.43033  0.75276  1.0000
  O   O127      1.0  0.84433  0.39848  0.72161  1.0000
  O   O128      1.0  0.87465  0.41280  0.68659  1.0000
  H   H136      1.0  0.91220  0.45535  0.69158  1.0000
  Cu  Cu20      1.0  0.84395  0.38360  0.69342  1.0000
