data_image0
_chemical_formula_structural       C18HO2H2O2H2O2HC18HO2H2O2H2O2HC18HO2H2O2H2O2HC18HO2H2O2H2O2HC18HO2H2O2H2O2HC18HO2H2O2H2O2HC18HO2H2O2H2O2HC18HO2H2O2H2O2HFe8C6HO2HO2C6HO2HO2C6HO2HO2C6HO2HO2Cu4C6O2HO2HCuC6O2HO2HCuC6O2HO2HCuC6O2HO2HCuC6O2HO2HCuC6O2HO2HCuC6O2HO2HCuC6O2HO2HCuC6O2HO2HCuC6O2HO2HCuC6O2HO2HCuC6O2HO2HCuC6O2HO2HCuC6O2HO2HCuC6O2HO2HCuC6O2HO2HCu
_chemical_formula_sum              "C264 H88 O128 Fe8 Cu20"
_cell_length_a       43.993
_cell_length_b       41.0999
_cell_length_c       53.5753
_cell_angle_alpha    89.9999
_cell_angle_beta     90
_cell_angle_gamma    89.9972

_space_group_name_H-M_alt    "P 1"
_space_group_IT_number       1

loop_
  _space_group_symop_operation_xyz
  'x, y, z'

loop_
  _atom_site_type_symbol
  _atom_site_label
  _atom_site_symmetry_multiplicity
  _atom_site_fract_x
  _atom_site_fract_y
  _atom_site_fract_z
  _atom_site_occupancy
  C   C1        1.0  0.23148  0.28247  0.11438  1.0000
  C   C2        1.0  0.24068  0.26857  0.13702  1.0000
  C   C3        1.0  0.25905  0.24076  0.13702  1.0000
  C   C4        1.0  0.26823  0.22685  0.11439  1.0000
  C   C5        1.0  0.25904  0.24074  0.09176  1.0000
  C   C6        1.0  0.24066  0.26856  0.09176  1.0000
  C   C7        1.0  0.28661  0.19903  0.11439  1.0000
  C   C8        1.0  0.29580  0.18514  0.13702  1.0000
  C   C9        1.0  0.28662  0.19905  0.15965  1.0000
  C   C10       1.0  0.26825  0.22686  0.15965  1.0000
  C   C11       1.0  0.21311  0.31028  0.11438  1.0000
  C   C12       1.0  0.20393  0.32420  0.13701  1.0000
  C   C13       1.0  0.21312  0.31030  0.15964  1.0000
  C   C14       1.0  0.23150  0.28249  0.15965  1.0000
  C   C15       1.0  0.23147  0.28245  0.06912  1.0000
  C   C16       1.0  0.24064  0.26854  0.04649  1.0000
  C   C17       1.0  0.25902  0.24072  0.04650  1.0000
  C   C18       1.0  0.26821  0.22683  0.06913  1.0000
  H   H1        1.0  0.29349  0.18860  0.09742  1.0000
  O   O1        1.0  0.31234  0.16010  0.13702  1.0000
  O   O2        1.0  0.29490  0.18654  0.18002  1.0000
  H   H2        1.0  0.26136  0.23730  0.17662  1.0000
  H   H3        1.0  0.20621  0.32071  0.09741  1.0000
  O   O3        1.0  0.18739  0.34923  0.13701  1.0000
  O   O4        1.0  0.20486  0.32283  0.18001  1.0000
  H   H4        1.0  0.23840  0.27207  0.17662  1.0000
  H   H5        1.0  0.21768  0.30331  0.06912  1.0000
  O   O5        1.0  0.23237  0.28105  0.02613  1.0000
  O   O6        1.0  0.26728  0.22820  0.02613  1.0000
  H   H6        1.0  0.28199  0.20597  0.06913  1.0000
  C   C19       1.0  0.73155  0.78255  0.11438  1.0000
  C   C20       1.0  0.74074  0.76865  0.13702  1.0000
  C   C21       1.0  0.75912  0.74084  0.13702  1.0000
  C   C22       1.0  0.76830  0.72692  0.11439  1.0000
  C   C23       1.0  0.75911  0.74082  0.09176  1.0000
  C   C24       1.0  0.74073  0.76864  0.09176  1.0000
  C   C25       1.0  0.78667  0.69911  0.11439  1.0000
  C   C26       1.0  0.79587  0.68521  0.13702  1.0000
  C   C27       1.0  0.78668  0.69912  0.15965  1.0000
  C   C28       1.0  0.76831  0.72694  0.15965  1.0000
  C   C29       1.0  0.71318  0.81036  0.11438  1.0000
  C   C30       1.0  0.70399  0.82427  0.13701  1.0000
  C   C31       1.0  0.71318  0.81037  0.15964  1.0000
  C   C32       1.0  0.73156  0.78256  0.15965  1.0000
  C   C33       1.0  0.73154  0.78254  0.06912  1.0000
  C   C34       1.0  0.74073  0.76862  0.04649  1.0000
  C   C35       1.0  0.75910  0.74081  0.04650  1.0000
  C   C36       1.0  0.76829  0.72691  0.06913  1.0000
  H   H7        1.0  0.79356  0.68868  0.09742  1.0000
  O   O7        1.0  0.81240  0.66018  0.13703  1.0000
  O   O8        1.0  0.79495  0.68661  0.18002  1.0000
  H   H8        1.0  0.76142  0.73737  0.17662  1.0000
  H   H9        1.0  0.70628  0.82079  0.09741  1.0000
  O   O9        1.0  0.68746  0.84931  0.13701  1.0000
  O   O10       1.0  0.70492  0.82290  0.18001  1.0000
  H   H10       1.0  0.73845  0.77214  0.17662  1.0000
  H   H11       1.0  0.71776  0.80340  0.06912  1.0000
  O   O11       1.0  0.73246  0.78113  0.02613  1.0000
  O   O12       1.0  0.76737  0.72829  0.02613  1.0000
  H   H12       1.0  0.78207  0.70605  0.06913  1.0000
  C   C37       1.0  0.23177  0.72685  0.38561  1.0000
  C   C38       1.0  0.24095  0.74077  0.36298  1.0000
  C   C39       1.0  0.25932  0.76858  0.36298  1.0000
  C   C40       1.0  0.26852  0.78247  0.38561  1.0000
  C   C41       1.0  0.25934  0.76856  0.40824  1.0000
  C   C42       1.0  0.24097  0.74075  0.40824  1.0000
  C   C43       1.0  0.28689  0.81029  0.38561  1.0000
  C   C44       1.0  0.29607  0.82420  0.36299  1.0000
  C   C45       1.0  0.28688  0.81030  0.34035  1.0000
  C   C46       1.0  0.26850  0.78249  0.34035  1.0000
  C   C47       1.0  0.21340  0.69904  0.38561  1.0000
  C   C48       1.0  0.20420  0.68514  0.36298  1.0000
  C   C49       1.0  0.21338  0.69906  0.34035  1.0000
  C   C50       1.0  0.23175  0.72687  0.34035  1.0000
  C   C51       1.0  0.23179  0.72683  0.43087  1.0000
  C   C52       1.0  0.24098  0.74073  0.45350  1.0000
  C   C53       1.0  0.25936  0.76854  0.45350  1.0000
  C   C54       1.0  0.26853  0.78246  0.43087  1.0000
  H   H13       1.0  0.29379  0.82071  0.40259  1.0000
  O   O13       1.0  0.31261  0.84923  0.36299  1.0000
  O   O14       1.0  0.29514  0.82283  0.31999  1.0000
  H   H14       1.0  0.26160  0.77207  0.32338  1.0000
  H   H15       1.0  0.20651  0.68861  0.40258  1.0000
  O   O15       1.0  0.18766  0.66011  0.36297  1.0000
  O   O16       1.0  0.20510  0.68655  0.31998  1.0000
  H   H16       1.0  0.23864  0.73731  0.32338  1.0000
  H   H17       1.0  0.21801  0.70598  0.43087  1.0000
  O   O17       1.0  0.23272  0.72821  0.47387  1.0000
  O   O18       1.0  0.26763  0.78105  0.47387  1.0000
  H   H18       1.0  0.28232  0.80331  0.43088  1.0000
  C   C55       1.0  0.73170  0.22692  0.38561  1.0000
  C   C56       1.0  0.74088  0.24083  0.36298  1.0000
  C   C57       1.0  0.75925  0.26865  0.36298  1.0000
  C   C58       1.0  0.76844  0.28254  0.38561  1.0000
  C   C59       1.0  0.75926  0.26863  0.40824  1.0000
  C   C60       1.0  0.74089  0.24082  0.40824  1.0000
  C   C61       1.0  0.78682  0.31036  0.38561  1.0000
  C   C62       1.0  0.79600  0.32427  0.36299  1.0000
  C   C63       1.0  0.78681  0.31037  0.34035  1.0000
  C   C64       1.0  0.76844  0.28256  0.34035  1.0000
  C   C65       1.0  0.71332  0.19911  0.38560  1.0000
  C   C66       1.0  0.70413  0.18521  0.36297  1.0000
  C   C67       1.0  0.71331  0.19912  0.34034  1.0000
  C   C68       1.0  0.73169  0.22693  0.34035  1.0000
  C   C69       1.0  0.73170  0.22691  0.43087  1.0000
  C   C70       1.0  0.74090  0.24081  0.45350  1.0000
  C   C71       1.0  0.75927  0.26862  0.45350  1.0000
  C   C72       1.0  0.76845  0.28253  0.43087  1.0000
  H   H19       1.0  0.79371  0.32078  0.40259  1.0000
  O   O19       1.0  0.81254  0.34930  0.36299  1.0000
  O   O20       1.0  0.79507  0.32289  0.31999  1.0000
  H   H20       1.0  0.76154  0.27213  0.32338  1.0000
  H   H21       1.0  0.70644  0.18868  0.40258  1.0000
  O   O21       1.0  0.68760  0.16018  0.36297  1.0000
  O   O22       1.0  0.70504  0.18661  0.31998  1.0000
  H   H22       1.0  0.73858  0.23737  0.32337  1.0000
  H   H23       1.0  0.71792  0.20605  0.43087  1.0000
  O   O23       1.0  0.73263  0.22829  0.47387  1.0000
  O   O24       1.0  0.76754  0.28113  0.47387  1.0000
  H   H24       1.0  0.78223  0.30339  0.43088  1.0000
  C   C73       1.0  0.75912  0.74084  0.86298  1.0000
  C   C74       1.0  0.76830  0.72692  0.88561  1.0000
  C   C75       1.0  0.75911  0.74082  0.90824  1.0000
  C   C76       1.0  0.74074  0.76864  0.90824  1.0000
  C   C77       1.0  0.73155  0.78255  0.88562  1.0000
  C   C78       1.0  0.74074  0.76865  0.86298  1.0000
  C   C79       1.0  0.73155  0.78254  0.93088  1.0000
  C   C80       1.0  0.74073  0.76862  0.95351  1.0000
  C   C81       1.0  0.75910  0.74081  0.95350  1.0000
  C   C82       1.0  0.76829  0.72691  0.93087  1.0000
  C   C83       1.0  0.76831  0.72694  0.84035  1.0000
  C   C84       1.0  0.78668  0.69912  0.84035  1.0000
  C   C85       1.0  0.79587  0.68521  0.86298  1.0000
  C   C86       1.0  0.78668  0.69911  0.88561  1.0000
  C   C87       1.0  0.73156  0.78256  0.84035  1.0000
  C   C88       1.0  0.71319  0.81037  0.84036  1.0000
  C   C89       1.0  0.70399  0.82427  0.86299  1.0000
  C   C90       1.0  0.71318  0.81036  0.88562  1.0000
  H   H25       1.0  0.71776  0.80340  0.93088  1.0000
  O   O25       1.0  0.73246  0.78113  0.97387  1.0000
  O   O26       1.0  0.76737  0.72829  0.97387  1.0000
  H   H26       1.0  0.78207  0.70605  0.93087  1.0000
  H   H27       1.0  0.76142  0.73737  0.82338  1.0000
  O   O27       1.0  0.79496  0.68661  0.81998  1.0000
  O   O28       1.0  0.81240  0.66018  0.86297  1.0000
  H   H28       1.0  0.79356  0.68868  0.90258  1.0000
  H   H29       1.0  0.73845  0.77214  0.82338  1.0000
  O   O29       1.0  0.70492  0.82290  0.81999  1.0000
  O   O30       1.0  0.68746  0.84931  0.86299  1.0000
  H   H30       1.0  0.70629  0.82079  0.90259  1.0000
  C   C91       1.0  0.25905  0.24076  0.86298  1.0000
  C   C92       1.0  0.26823  0.22685  0.88561  1.0000
  C   C93       1.0  0.25904  0.24074  0.90824  1.0000
  C   C94       1.0  0.24066  0.26856  0.90824  1.0000
  C   C95       1.0  0.23148  0.28247  0.88561  1.0000
  C   C96       1.0  0.24068  0.26857  0.86298  1.0000
  C   C97       1.0  0.23147  0.28245  0.93088  1.0000
  C   C98       1.0  0.24065  0.26854  0.95351  1.0000
  C   C99       1.0  0.25902  0.24073  0.95350  1.0000
  C   C100      1.0  0.26822  0.22683  0.93087  1.0000
  C   C101      1.0  0.26825  0.22686  0.84035  1.0000
  C   C102      1.0  0.28662  0.19905  0.84035  1.0000
  C   C103      1.0  0.29580  0.18514  0.86298  1.0000
  C   C104      1.0  0.28661  0.19903  0.88561  1.0000
  C   C105      1.0  0.23150  0.28249  0.84035  1.0000
  C   C106      1.0  0.21313  0.31030  0.84036  1.0000
  C   C107      1.0  0.20393  0.32420  0.86299  1.0000
  C   C108      1.0  0.21311  0.31028  0.88562  1.0000
  H   H31       1.0  0.21769  0.30331  0.93088  1.0000
  O   O31       1.0  0.23237  0.28105  0.97387  1.0000
  O   O32       1.0  0.26728  0.22820  0.97387  1.0000
  H   H32       1.0  0.28200  0.20597  0.93087  1.0000
  H   H33       1.0  0.26137  0.23730  0.82338  1.0000
  O   O33       1.0  0.29490  0.18654  0.81998  1.0000
  O   O34       1.0  0.31234  0.16010  0.86298  1.0000
  H   H34       1.0  0.29349  0.18860  0.90258  1.0000
  H   H35       1.0  0.23840  0.27207  0.82338  1.0000
  O   O35       1.0  0.20487  0.32283  0.81999  1.0000
  O   O36       1.0  0.18739  0.34923  0.86299  1.0000
  H   H36       1.0  0.20621  0.32071  0.90259  1.0000
  C   C109      1.0  0.75925  0.26864  0.63702  1.0000
  C   C110      1.0  0.76845  0.28254  0.61439  1.0000
  C   C111      1.0  0.75926  0.26863  0.59176  1.0000
  C   C112      1.0  0.74089  0.24082  0.59176  1.0000
  C   C113      1.0  0.73170  0.22692  0.61439  1.0000
  C   C114      1.0  0.74088  0.24083  0.63702  1.0000
  C   C115      1.0  0.73171  0.22691  0.56913  1.0000
  C   C116      1.0  0.74090  0.24081  0.54650  1.0000
  C   C117      1.0  0.75927  0.26862  0.54650  1.0000
  C   C118      1.0  0.76845  0.28253  0.56913  1.0000
  C   C119      1.0  0.76844  0.28256  0.65965  1.0000
  C   C120      1.0  0.78681  0.31037  0.65965  1.0000
  C   C121      1.0  0.79600  0.32427  0.63701  1.0000
  C   C122      1.0  0.78682  0.31036  0.61439  1.0000
  C   C123      1.0  0.73169  0.22693  0.65965  1.0000
  C   C124      1.0  0.71332  0.19912  0.65966  1.0000
  C   C125      1.0  0.70413  0.18521  0.63703  1.0000
  C   C126      1.0  0.71332  0.19911  0.61440  1.0000
  H   H37       1.0  0.71793  0.20605  0.56913  1.0000
  O   O37       1.0  0.73263  0.22829  0.52613  1.0000
  O   O38       1.0  0.76754  0.28113  0.52613  1.0000
  H   H38       1.0  0.78223  0.30339  0.56912  1.0000
  H   H39       1.0  0.76154  0.27213  0.67662  1.0000
  O   O39       1.0  0.79508  0.32289  0.68001  1.0000
  O   O40       1.0  0.81254  0.34930  0.63701  1.0000
  H   H40       1.0  0.79371  0.32078  0.59741  1.0000
  H   H41       1.0  0.73858  0.23737  0.67663  1.0000
  O   O41       1.0  0.70504  0.18661  0.68003  1.0000
  O   O42       1.0  0.68760  0.16018  0.63703  1.0000
  H   H42       1.0  0.70644  0.18868  0.59742  1.0000
  C   C127      1.0  0.25932  0.76858  0.63702  1.0000
  C   C128      1.0  0.26852  0.78247  0.61439  1.0000
  C   C129      1.0  0.25934  0.76856  0.59176  1.0000
  C   C130      1.0  0.24097  0.74075  0.59176  1.0000
  C   C131      1.0  0.23177  0.72685  0.61439  1.0000
  C   C132      1.0  0.24095  0.74077  0.63702  1.0000
  C   C133      1.0  0.23179  0.72683  0.56913  1.0000
  C   C134      1.0  0.24098  0.74073  0.54650  1.0000
  C   C135      1.0  0.25936  0.76854  0.54650  1.0000
  C   C136      1.0  0.26854  0.78246  0.56913  1.0000
  C   C137      1.0  0.26850  0.78249  0.65965  1.0000
  C   C138      1.0  0.28688  0.81030  0.65965  1.0000
  C   C139      1.0  0.29607  0.82420  0.63701  1.0000
  C   C140      1.0  0.28689  0.81028  0.61438  1.0000
  C   C141      1.0  0.23176  0.72687  0.65965  1.0000
  C   C142      1.0  0.21338  0.69906  0.65965  1.0000
  C   C143      1.0  0.20420  0.68514  0.63702  1.0000
  C   C144      1.0  0.21340  0.69904  0.61439  1.0000
  H   H43       1.0  0.21801  0.70598  0.56913  1.0000
  O   O43       1.0  0.23272  0.72821  0.52613  1.0000
  O   O44       1.0  0.26763  0.78105  0.52613  1.0000
  H   H44       1.0  0.28232  0.80331  0.56912  1.0000
  H   H45       1.0  0.26161  0.77207  0.67662  1.0000
  O   O45       1.0  0.29514  0.82282  0.68001  1.0000
  O   O46       1.0  0.31261  0.84923  0.63701  1.0000
  H   H46       1.0  0.29379  0.82071  0.59741  1.0000
  H   H47       1.0  0.23864  0.73730  0.67662  1.0000
  O   O47       1.0  0.20511  0.68655  0.68002  1.0000
  O   O48       1.0  0.18767  0.66011  0.63703  1.0000
  H   H48       1.0  0.20651  0.68860  0.59742  1.0000
  Fe  Fe1       1.0  0.41517  0.00478  0.25003  1.0000
  Fe  Fe2       1.0  0.58483  0.00482  0.24997  1.0000
  Fe  Fe3       1.0  0.58483  0.00482  0.75003  1.0000
  Fe  Fe4       1.0  0.41517  0.00478  0.74997  1.0000
  Fe  Fe5       1.0  0.91516  0.50482  0.25004  1.0000
  Fe  Fe6       1.0  0.08484  0.50480  0.24998  1.0000
  Fe  Fe7       1.0  0.08484  0.50480  0.75002  1.0000
  Fe  Fe8       1.0  0.91516  0.50482  0.74996  1.0000
  C   C145      1.0  0.49999  0.03888  0.25000  1.0000
  C   C146      1.0  0.47243  0.02184  0.25001  1.0000
  C   C147      1.0  0.47244  0.98778  0.25001  1.0000
  C   C148      1.0  0.50001  0.97075  0.25000  1.0000
  C   C149      1.0  0.52756  0.98779  0.24999  1.0000
  C   C150      1.0  0.52755  0.02186  0.24999  1.0000
  H   H49       1.0  0.49998  0.06443  0.25000  1.0000
  O   O49       1.0  0.44763  0.03716  0.25002  1.0000
  O   O50       1.0  0.44765  0.97244  0.25002  1.0000
  H   H50       1.0  0.50002  0.94521  0.25000  1.0000
  O   O51       1.0  0.55237  0.97247  0.24998  1.0000
  O   O52       1.0  0.55235  0.03719  0.24998  1.0000
  C   C151      1.0  0.49999  0.03888  0.75000  1.0000
  C   C152      1.0  0.47244  0.02184  0.74999  1.0000
  C   C153      1.0  0.47245  0.98778  0.74999  1.0000
  C   C154      1.0  0.50001  0.97075  0.75000  1.0000
  C   C155      1.0  0.52757  0.98779  0.75001  1.0000
  C   C156      1.0  0.52756  0.02186  0.75001  1.0000
  H   H51       1.0  0.49998  0.06443  0.75000  1.0000
  O   O53       1.0  0.44763  0.03716  0.74998  1.0000
  O   O54       1.0  0.44765  0.97244  0.74998  1.0000
  H   H52       1.0  0.50002  0.94521  0.75000  1.0000
  O   O55       1.0  0.55237  0.97247  0.75002  1.0000
  O   O56       1.0  0.55235  0.03719  0.75002  1.0000
  C   C157      1.0  0.00010  0.53888  0.25001  1.0000
  C   C158      1.0  0.02756  0.52185  0.25000  1.0000
  C   C159      1.0  0.02756  0.48778  0.25000  1.0000
  C   C160      1.0  0.99990  0.47076  0.25001  1.0000
  C   C161      1.0  0.97244  0.48779  0.25002  1.0000
  C   C162      1.0  0.97244  0.52185  0.25002  1.0000
  H   H53       1.0  0.00010  0.56443  0.25001  1.0000
  O   O57       1.0  0.05236  0.53717  0.24998  1.0000
  O   O58       1.0  0.05236  0.47245  0.24998  1.0000
  H   H54       1.0  0.99990  0.44521  0.25001  1.0000
  O   O59       1.0  0.94763  0.47246  0.25003  1.0000
  O   O60       1.0  0.94764  0.53719  0.25003  1.0000
  C   C163      1.0  0.00010  0.53888  0.74999  1.0000
  C   C164      1.0  0.97244  0.52185  0.74998  1.0000
  C   C165      1.0  0.97244  0.48779  0.74998  1.0000
  C   C166      1.0  0.99990  0.47076  0.74999  1.0000
  C   C167      1.0  0.02756  0.48778  0.75000  1.0000
  C   C168      1.0  0.02756  0.52185  0.75000  1.0000
  H   H55       1.0  0.00010  0.56443  0.74999  1.0000
  O   O61       1.0  0.94764  0.53719  0.74996  1.0000
  O   O62       1.0  0.94764  0.47247  0.74997  1.0000
  H   H56       1.0  0.99990  0.44521  0.74999  1.0000
  O   O63       1.0  0.05236  0.47245  0.75002  1.0000
  O   O64       1.0  0.05237  0.53717  0.75002  1.0000
  Cu  Cu1       1.0  0.24982  0.25462  0.00010  1.0000
  Cu  Cu2       1.0  0.74991  0.75471  0.99990  1.0000
  Cu  Cu3       1.0  0.25018  0.75463  0.50000  1.0000
  Cu  Cu4       1.0  0.75009  0.25471  0.50000  1.0000
  C   C169      1.0  0.37531  0.05624  0.23642  1.0000
  C   C170      1.0  0.39281  0.04741  0.21249  1.0000
  C   C171      1.0  0.38642  0.06588  0.18806  1.0000
  C   C172      1.0  0.36252  0.09324  0.18750  1.0000
  C   C173      1.0  0.34494  0.10212  0.21149  1.0000
  C   C174      1.0  0.35140  0.08358  0.23590  1.0000
  O   O65       1.0  0.38158  0.03811  0.26039  1.0000
  O   O66       1.0  0.41626  0.02060  0.21300  1.0000
  H   H57       1.0  0.39940  0.05930  0.17037  1.0000
  O   O67       1.0  0.35632  0.11132  0.16346  1.0000
  O   O68       1.0  0.32142  0.12896  0.21110  1.0000
  H   H58       1.0  0.33844  0.09012  0.25362  1.0000
  Cu  Cu5       1.0  0.32110  0.14703  0.17261  1.0000
  C   C175      1.0  0.62354  0.95227  0.23662  1.0000
  C   C176      1.0  0.60825  0.96323  0.21219  1.0000
  C   C177      1.0  0.61572  0.94579  0.18752  1.0000
  C   C178      1.0  0.63850  0.91735  0.18721  1.0000
  C   C179      1.0  0.65385  0.90633  0.21171  1.0000
  C   C180      1.0  0.64632  0.92384  0.23636  1.0000
  O   O69       1.0  0.61621  0.96938  0.26083  1.0000
  O   O70       1.0  0.58591  0.99111  0.21245  1.0000
  H   H59       1.0  0.60437  0.95395  0.16946  1.0000
  O   O71       1.0  0.64576  0.90030  0.16293  1.0000
  O   O72       1.0  0.67626  0.87841  0.21156  1.0000
  H   H60       1.0  0.65765  0.91572  0.25444  1.0000
  Cu  Cu6       1.0  0.67875  0.86244  0.17258  1.0000
  C   C181      1.0  0.39281  0.96209  0.28750  1.0000
  C   C182      1.0  0.37533  0.95327  0.26355  1.0000
  C   C183      1.0  0.35145  0.92591  0.26398  1.0000
  C   C184      1.0  0.34499  0.90731  0.28836  1.0000
  C   C185      1.0  0.36250  0.91613  0.31239  1.0000
  C   C186      1.0  0.38639  0.94351  0.31189  1.0000
  O   O73       1.0  0.41625  0.98892  0.28708  1.0000
  O   O74       1.0  0.38164  0.97148  0.23964  1.0000
  H   H61       1.0  0.33854  0.91943  0.24624  1.0000
  O   O75       1.0  0.32150  0.88045  0.28869  1.0000
  O   O76       1.0  0.35628  0.89797  0.33641  1.0000
  H   H62       1.0  0.39932  0.95004  0.32962  1.0000
  Cu  Cu7       1.0  0.32108  0.86224  0.32710  1.0000
  C   C187      1.0  0.62467  0.05629  0.26358  1.0000
  C   C188      1.0  0.60717  0.04745  0.28751  1.0000
  C   C189      1.0  0.61356  0.06593  0.31194  1.0000
  C   C190      1.0  0.63745  0.09329  0.31250  1.0000
  C   C191      1.0  0.65502  0.10218  0.28850  1.0000
  C   C192      1.0  0.64857  0.08364  0.26409  1.0000
  O   O77       1.0  0.61841  0.03816  0.23961  1.0000
  O   O78       1.0  0.58374  0.02064  0.28700  1.0000
  H   H63       1.0  0.60058  0.05935  0.32963  1.0000
  O   O79       1.0  0.64364  0.11138  0.33654  1.0000
  O   O80       1.0  0.67853  0.12903  0.28890  1.0000
  H   H64       1.0  0.66153  0.09018  0.24638  1.0000
  Cu  Cu8       1.0  0.67885  0.14710  0.32739  1.0000
  C   C193      1.0  0.60720  0.96213  0.78750  1.0000
  C   C194      1.0  0.62468  0.95332  0.76356  1.0000
  C   C195      1.0  0.64858  0.92597  0.76399  1.0000
  C   C196      1.0  0.65505  0.90737  0.78836  1.0000
  C   C197      1.0  0.63753  0.91618  0.81239  1.0000
  C   C198      1.0  0.61364  0.94356  0.81189  1.0000
  O   O81       1.0  0.58376  0.98896  0.78708  1.0000
  O   O82       1.0  0.61837  0.97153  0.73964  1.0000
  H   H65       1.0  0.66149  0.91949  0.74624  1.0000
  O   O83       1.0  0.67854  0.88052  0.78869  1.0000
  O   O84       1.0  0.64375  0.89802  0.83641  1.0000
  H   H66       1.0  0.60070  0.95008  0.82962  1.0000
  Cu  Cu9       1.0  0.67897  0.86231  0.82710  1.0000
  C   C199      1.0  0.37398  0.05480  0.76403  1.0000
  C   C200      1.0  0.39415  0.04885  0.78705  1.0000
  C   C201      1.0  0.38910  0.06876  0.81102  1.0000
  C   C202      1.0  0.36387  0.09469  0.81204  1.0000
  C   C203      1.0  0.34361  0.10069  0.78896  1.0000
  C   C204      1.0  0.34873  0.08072  0.76501  1.0000
  O   O85       1.0  0.37893  0.03526  0.74051  1.0000
  O   O86       1.0  0.41890  0.02344  0.78609  1.0000
  H   H67       1.0  0.40406  0.06431  0.82804  1.0000
  O   O87       1.0  0.35899  0.11419  0.83563  1.0000
  O   O88       1.0  0.31877  0.12612  0.78981  1.0000
  H   H68       1.0  0.33380  0.08513  0.74797  1.0000
  Cu  Cu10      1.0  0.32112  0.14705  0.82739  1.0000
  C   C205      1.0  0.62467  0.05629  0.73642  1.0000
  C   C206      1.0  0.60718  0.04745  0.71249  1.0000
  C   C207      1.0  0.61356  0.06593  0.68806  1.0000
  C   C208      1.0  0.63745  0.09329  0.68750  1.0000
  C   C209      1.0  0.65502  0.10218  0.71150  1.0000
  C   C210      1.0  0.64857  0.08364  0.73591  1.0000
  O   O89       1.0  0.61841  0.03816  0.76039  1.0000
  O   O90       1.0  0.58374  0.02064  0.71300  1.0000
  H   H69       1.0  0.60058  0.05935  0.67037  1.0000
  O   O91       1.0  0.64365  0.11138  0.66346  1.0000
  O   O92       1.0  0.67853  0.12903  0.71110  1.0000
  H   H70       1.0  0.66153  0.09018  0.75362  1.0000
  Cu  Cu11      1.0  0.67885  0.14710  0.67261  1.0000
  C   C211      1.0  0.39282  0.96209  0.71250  1.0000
  C   C212      1.0  0.37534  0.95327  0.73645  1.0000
  C   C213      1.0  0.35145  0.92591  0.73602  1.0000
  C   C214      1.0  0.34499  0.90731  0.71164  1.0000
  C   C215      1.0  0.36250  0.91613  0.68761  1.0000
  C   C216      1.0  0.38639  0.94351  0.68811  1.0000
  O   O93       1.0  0.41625  0.98892  0.71292  1.0000
  O   O94       1.0  0.38164  0.97148  0.76036  1.0000
  H   H71       1.0  0.33854  0.91943  0.75376  1.0000
  O   O95       1.0  0.32150  0.88045  0.71131  1.0000
  O   O96       1.0  0.35629  0.89797  0.66359  1.0000
  H   H72       1.0  0.39932  0.95004  0.67038  1.0000
  Cu  Cu12      1.0  0.32108  0.86224  0.67290  1.0000
  C   C217      1.0  0.87532  0.55628  0.23643  1.0000
  C   C218      1.0  0.89282  0.54745  0.21250  1.0000
  C   C219      1.0  0.88644  0.56593  0.18807  1.0000
  C   C220      1.0  0.86255  0.59329  0.18751  1.0000
  C   C221      1.0  0.84497  0.60218  0.21150  1.0000
  C   C222      1.0  0.85142  0.58364  0.23591  1.0000
  O   O97       1.0  0.88158  0.53815  0.26040  1.0000
  O   O98       1.0  0.91626  0.52063  0.21301  1.0000
  H   H73       1.0  0.89942  0.55934  0.17038  1.0000
  O   O99       1.0  0.85636  0.61137  0.16346  1.0000
  O   O100      1.0  0.82146  0.62903  0.21110  1.0000
  H   H74       1.0  0.83846  0.59018  0.25362  1.0000
  Cu  Cu13      1.0  0.82115  0.64710  0.17261  1.0000
  C   C223      1.0  0.10798  0.46287  0.21232  1.0000
  C   C224      1.0  0.12388  0.45250  0.23664  1.0000
  C   C225      1.0  0.14696  0.42437  0.23640  1.0000
  C   C226      1.0  0.15422  0.40653  0.21184  1.0000
  C   C227      1.0  0.13829  0.41690  0.18743  1.0000
  C   C228      1.0  0.11520  0.44506  0.18774  1.0000
  O   O101      1.0  0.08532  0.49047  0.21255  1.0000
  O   O102      1.0  0.11680  0.46995  0.26074  1.0000
  H   H75       1.0  0.15870  0.41674  0.25442  1.0000
  O   O103      1.0  0.17692  0.37891  0.21169  1.0000
  O   O104      1.0  0.14529  0.39950  0.16322  1.0000
  H   H76       1.0  0.10343  0.45273  0.16973  1.0000
  Cu  Cu14      1.0  0.17891  0.36223  0.17291  1.0000
  C   C229      1.0  0.89279  0.46212  0.28751  1.0000
  C   C230      1.0  0.87531  0.45331  0.26356  1.0000
  C   C231      1.0  0.85142  0.42597  0.26399  1.0000
  C   C232      1.0  0.84495  0.40736  0.28836  1.0000
  C   C233      1.0  0.86247  0.41618  0.31239  1.0000
  C   C234      1.0  0.88636  0.44355  0.31190  1.0000
  O   O105      1.0  0.91624  0.48895  0.28709  1.0000
  O   O106      1.0  0.88163  0.47152  0.23965  1.0000
  H   H77       1.0  0.83851  0.41949  0.24624  1.0000
  O   O107      1.0  0.82146  0.38052  0.28869  1.0000
  O   O108      1.0  0.85624  0.39801  0.33642  1.0000
  H   H78       1.0  0.89929  0.45007  0.32963  1.0000
  Cu  Cu15      1.0  0.82102  0.36230  0.32710  1.0000
  C   C235      1.0  0.12469  0.55625  0.26358  1.0000
  C   C236      1.0  0.10719  0.54742  0.28751  1.0000
  C   C237      1.0  0.11358  0.56590  0.31194  1.0000
  C   C238      1.0  0.13749  0.59325  0.31250  1.0000
  C   C239      1.0  0.15506  0.60213  0.28851  1.0000
  C   C240      1.0  0.14860  0.58359  0.26410  1.0000
  O   O109      1.0  0.11842  0.53812  0.23961  1.0000
  O   O110      1.0  0.08375  0.52061  0.28701  1.0000
  H   H79       1.0  0.10060  0.55932  0.32963  1.0000
  O   O111      1.0  0.14369  0.61133  0.33654  1.0000
  O   O112      1.0  0.17858  0.62897  0.28890  1.0000
  H   H80       1.0  0.16156  0.59013  0.24638  1.0000
  Cu  Cu16      1.0  0.17891  0.64704  0.32739  1.0000
  C   C241      1.0  0.10719  0.46210  0.78749  1.0000
  C   C242      1.0  0.12467  0.45327  0.76355  1.0000
  C   C243      1.0  0.14856  0.42592  0.76398  1.0000
  C   C244      1.0  0.15502  0.40731  0.78835  1.0000
  C   C245      1.0  0.13750  0.41613  0.81239  1.0000
  C   C246      1.0  0.11362  0.44352  0.81188  1.0000
  O   O113      1.0  0.08375  0.48894  0.78707  1.0000
  O   O114      1.0  0.11837  0.47149  0.73964  1.0000
  H   H81       1.0  0.16147  0.41943  0.74624  1.0000
  O   O115      1.0  0.17851  0.38046  0.78869  1.0000
  O   O116      1.0  0.14372  0.39797  0.83641  1.0000
  H   H82       1.0  0.10068  0.45005  0.82961  1.0000
  Cu  Cu17      1.0  0.17892  0.36224  0.82710  1.0000
  C   C247      1.0  0.87532  0.55628  0.76357  1.0000
  C   C248      1.0  0.89282  0.54745  0.78750  1.0000
  C   C249      1.0  0.88644  0.56593  0.81193  1.0000
  C   C250      1.0  0.86255  0.59329  0.81249  1.0000
  C   C251      1.0  0.84497  0.60218  0.78850  1.0000
  C   C252      1.0  0.85142  0.58364  0.76409  1.0000
  O   O117      1.0  0.88158  0.53815  0.73960  1.0000
  O   O118      1.0  0.91626  0.52063  0.78699  1.0000
  H   H83       1.0  0.89943  0.55934  0.82962  1.0000
  O   O119      1.0  0.85636  0.61138  0.83654  1.0000
  O   O120      1.0  0.82146  0.62903  0.78890  1.0000
  H   H84       1.0  0.83846  0.59018  0.74638  1.0000
  Cu  Cu18      1.0  0.82115  0.64710  0.82739  1.0000
  C   C253      1.0  0.12469  0.55625  0.73642  1.0000
  C   C254      1.0  0.10720  0.54742  0.71249  1.0000
  C   C255      1.0  0.11359  0.56590  0.68806  1.0000
  C   C256      1.0  0.13749  0.59325  0.68750  1.0000
  C   C257      1.0  0.15506  0.60213  0.71149  1.0000
  C   C258      1.0  0.14860  0.58359  0.73590  1.0000
  O   O121      1.0  0.11842  0.53812  0.76039  1.0000
  O   O122      1.0  0.08375  0.52061  0.71299  1.0000
  H   H85       1.0  0.10061  0.55932  0.67037  1.0000
  O   O123      1.0  0.14369  0.61133  0.66346  1.0000
  O   O124      1.0  0.17858  0.62897  0.71110  1.0000
  H   H86       1.0  0.16156  0.59013  0.75362  1.0000
  Cu  Cu19      1.0  0.17891  0.64704  0.67261  1.0000
  C   C259      1.0  0.89280  0.46212  0.71249  1.0000
  C   C260      1.0  0.87532  0.45331  0.73644  1.0000
  C   C261      1.0  0.85142  0.42597  0.73601  1.0000
  C   C262      1.0  0.84495  0.40736  0.71164  1.0000
  C   C263      1.0  0.86247  0.41618  0.68760  1.0000
  C   C264      1.0  0.88636  0.44355  0.68810  1.0000
  O   O125      1.0  0.91624  0.48895  0.71291  1.0000
  O   O126      1.0  0.88163  0.47152  0.76035  1.0000
  H   H87       1.0  0.83851  0.41949  0.75376  1.0000
  O   O127      1.0  0.82146  0.38052  0.71131  1.0000
  O   O128      1.0  0.85624  0.39801  0.66358  1.0000
  H   H88       1.0  0.89930  0.45007  0.67037  1.0000
  Cu  Cu20      1.0  0.82103  0.36230  0.67290  1.0000
