data_image0
_chemical_formula_structural       C18HO2H2O2H2O2HC18HO2H2O2H2O2HC18HO2H2O2H2O2HC18HO2H2O2H2O2HC18HO2H2O2H2O2HC18HO2H2O2H2O2HC18HO2H2O2H2O2HC18HO2H2O2H2O2HC18HO2H2O2H2O2HC18HO2H2O2H2O2HC18HO2H2O2H2O2HC18HO2H2O2H2O2HC18HO2H2O2H2O2HC18HO2H2O2H2O2HC18HO2H2O2H2O2HC18HO2H2O2H2O2HC18HO2H2O2H2O2HC18HO2H2O2H2O2HC18HO2H2O2H2O2HC18HO2H2O2H2O2HC18HO2H2O2H2O2HC18HO2H2O2H2O2HC18HO2H2O2H2O2HC18HO2H2O2H2O2HC18HO2H2O2H2O2HC18HO2H2O2H2O2HC18HO2H2O2H2O2HC18HO2H2O2H2O2HC18HO2H2O2H2O2HC18HO2H2O2H2O2HC18HO2H2O2H2O2HC18HO2H2O2H2O2HC18HO2H2O2H2O2HC18HO2H2O2H2O2HC18HO2H2O2H2O2HC18HO2H2O2H2O2HCu18Zn36
_chemical_formula_sum              "C648 H216 O216 Cu18 Zn36"
_cell_length_a       54.6938
_cell_length_b       54.694
_cell_length_c       71.871
_cell_angle_alpha    90.0066
_cell_angle_beta     89.993
_cell_angle_gamma    120.003

_space_group_name_H-M_alt    "P 1"
_space_group_IT_number       1

loop_
  _space_group_symop_operation_xyz
  'x, y, z'

loop_
  _atom_site_type_symbol
  _atom_site_label
  _atom_site_symmetry_multiplicity
  _atom_site_fract_x
  _atom_site_fract_y
  _atom_site_fract_z
  _atom_site_occupancy
  C   C1        1.0  0.36562  0.99349  0.00205  1.0000
  C   C2        1.0  0.38172  0.98137  0.99649  1.0000
  C   C3        1.0  0.40995  0.99349  0.00206  1.0000
  C   C4        1.0  0.42207  0.01774  0.01320  1.0000
  C   C5        1.0  0.40597  0.02987  0.01876  1.0000
  C   C6        1.0  0.37774  0.01774  0.01319  1.0000
  C   C7        1.0  0.45030  0.02987  0.01877  1.0000
  C   C8        1.0  0.46641  0.01774  0.01321  1.0000
  C   C9        1.0  0.45429  0.99349  0.00207  1.0000
  C   C10       1.0  0.42606  0.98137  0.99650  1.0000
  C   C11       1.0  0.33739  0.98137  0.99648  1.0000
  C   C12       1.0  0.32527  0.95711  0.98534  1.0000
  C   C13       1.0  0.34137  0.94499  0.97978  1.0000
  C   C14       1.0  0.36960  0.95711  0.98535  1.0000
  C   C15       1.0  0.36163  0.02987  0.01875  1.0000
  C   C16       1.0  0.37375  0.05412  0.02989  1.0000
  C   C17       1.0  0.40198  0.06625  0.03546  1.0000
  C   C18       1.0  0.41809  0.05412  0.02990  1.0000
  H   H1        1.0  0.45939  0.04806  0.02712  1.0000
  O   O1        1.0  0.49182  0.02866  0.01822  1.0000
  O   O2        1.0  0.46878  0.98258  0.99706  1.0000
  H   H2        1.0  0.41697  0.96318  0.98815  1.0000
  H   H3        1.0  0.32531  0.99046  0.00010  1.0000
  O   O3        1.0  0.29986  0.94620  0.98033  1.0000
  O   O4        1.0  0.33046  0.92316  0.96976  1.0000
  H   H4        1.0  0.38168  0.94802  0.98118  1.0000
  H   H5        1.0  0.34046  0.02078  0.01457  1.0000
  O   O5        1.0  0.35926  0.06504  0.03489  1.0000
  O   O6        1.0  0.41289  0.08808  0.04548  1.0000
  H   H6        1.0  0.43926  0.06322  0.03408  1.0000
  C   C19       1.0  0.98163  0.38145  0.01875  1.0000
  C   C20       1.0  0.99376  0.36534  0.01318  1.0000
  C   C21       1.0  0.01801  0.37747  0.00204  1.0000
  C   C22       1.0  0.03014  0.40570  0.99647  1.0000
  C   C23       1.0  0.01801  0.42180  0.00204  1.0000
  C   C24       1.0  0.99376  0.40968  0.01317  1.0000
  C   C25       1.0  0.05439  0.41782  0.98534  1.0000
  C   C26       1.0  0.06651  0.40171  0.97977  1.0000
  C   C27       1.0  0.05439  0.37348  0.98534  1.0000
  C   C28       1.0  0.03014  0.36136  0.99648  1.0000
  C   C29       1.0  0.95738  0.36933  0.02988  1.0000
  C   C30       1.0  0.94525  0.34110  0.03545  1.0000
  C   C31       1.0  0.95738  0.32499  0.02989  1.0000
  C   C32       1.0  0.98163  0.33712  0.01875  1.0000
  C   C33       1.0  0.98163  0.42579  0.01874  1.0000
  C   C34       1.0  0.99376  0.45402  0.01317  1.0000
  C   C35       1.0  0.01801  0.46614  0.00203  1.0000
  C   C36       1.0  0.03014  0.45003  0.99647  1.0000
  H   H7        1.0  0.06348  0.43899  0.98116  1.0000
  O   O7        1.0  0.08834  0.41262  0.96975  1.0000
  O   O8        1.0  0.06530  0.35899  0.98033  1.0000
  H   H8        1.0  0.02104  0.34019  0.00010  1.0000
  H   H9        1.0  0.94828  0.38141  0.03406  1.0000
  O   O9        1.0  0.92343  0.33019  0.04548  1.0000
  O   O10       1.0  0.94646  0.29959  0.03490  1.0000
  H   H10       1.0  0.99073  0.32504  0.01458  1.0000
  H   H11       1.0  0.96344  0.41669  0.02709  1.0000
  O   O11       1.0  0.98284  0.46851  0.01817  1.0000
  O   O12       1.0  0.02892  0.49154  0.99702  1.0000
  H   H12       1.0  0.04833  0.45912  0.98811  1.0000
  C   C37       1.0  0.60583  0.62980  0.99647  1.0000
  C   C38       1.0  0.63406  0.64591  0.00203  1.0000
  C   C39       1.0  0.64618  0.63378  0.01317  1.0000
  C   C40       1.0  0.63008  0.60555  0.01873  1.0000
  C   C41       1.0  0.60185  0.58945  0.01317  1.0000
  C   C42       1.0  0.58972  0.60157  0.00203  1.0000
  C   C43       1.0  0.64220  0.59343  0.02987  1.0000
  C   C44       1.0  0.67044  0.60953  0.03543  1.0000
  C   C45       1.0  0.68654  0.63776  0.02987  1.0000
  C   C46       1.0  0.67442  0.64989  0.01873  1.0000
  C   C47       1.0  0.59370  0.64193  0.98533  1.0000
  C   C48       1.0  0.60981  0.67016  0.97976  1.0000
  C   C49       1.0  0.63804  0.68626  0.98533  1.0000
  C   C50       1.0  0.65016  0.67414  0.99647  1.0000
  C   C51       1.0  0.56149  0.58546  0.99647  1.0000
  C   C52       1.0  0.54538  0.55723  0.00203  1.0000
  C   C53       1.0  0.55751  0.54511  0.01317  1.0000
  C   C54       1.0  0.58574  0.56121  0.01873  1.0000
  H   H13       1.0  0.63013  0.57225  0.03404  1.0000
  O   O13       1.0  0.68135  0.59862  0.04545  1.0000
  O   O14       1.0  0.71195  0.65226  0.03488  1.0000
  H   H14       1.0  0.68650  0.67106  0.01456  1.0000
  H   H15       1.0  0.57253  0.62985  0.98116  1.0000
  O   O15       1.0  0.59889  0.68107  0.96974  1.0000
  O   O16       1.0  0.65253  0.71167  0.98032  1.0000
  H   H16       1.0  0.67134  0.68622  0.00010  1.0000
  H   H17       1.0  0.55240  0.59456  0.98812  1.0000
  O   O17       1.0  0.51998  0.54274  0.99702  1.0000
  O   O18       1.0  0.54302  0.51970  0.01818  1.0000
  H   H18       1.0  0.59484  0.55212  0.02708  1.0000
  C   C55       1.0  0.63004  0.02985  0.01880  1.0000
  C   C56       1.0  0.64615  0.01773  0.01324  1.0000
  C   C57       1.0  0.63403  0.99347  0.00210  1.0000
  C   C58       1.0  0.60580  0.98134  0.99653  1.0000
  C   C59       1.0  0.58969  0.99347  0.00210  1.0000
  C   C60       1.0  0.60181  0.01772  0.01323  1.0000
  C   C61       1.0  0.59367  0.95709  0.98539  1.0000
  C   C62       1.0  0.60978  0.94497  0.97983  1.0000
  C   C63       1.0  0.63801  0.95710  0.98540  1.0000
  C   C64       1.0  0.65013  0.98135  0.99653  1.0000
  C   C65       1.0  0.64217  0.05410  0.02994  1.0000
  C   C66       1.0  0.67040  0.06623  0.03551  1.0000
  C   C67       1.0  0.68650  0.05411  0.02994  1.0000
  C   C68       1.0  0.67438  0.02985  0.01880  1.0000
  C   C69       1.0  0.58570  0.02984  0.01880  1.0000
  C   C70       1.0  0.55747  0.01772  0.01323  1.0000
  C   C71       1.0  0.54535  0.99346  0.00210  1.0000
  C   C72       1.0  0.56146  0.98134  0.99653  1.0000
  H   H19       1.0  0.57250  0.94800  0.98122  1.0000
  O   O19       1.0  0.59887  0.92314  0.96980  1.0000
  O   O20       1.0  0.65251  0.94618  0.98038  1.0000
  H   H20       1.0  0.67131  0.99045  0.00010  1.0000
  H   H21       1.0  0.63009  0.06319  0.03412  1.0000
  O   O21       1.0  0.68131  0.08806  0.04553  1.0000
  O   O22       1.0  0.71191  0.06502  0.03495  1.0000
  H   H22       1.0  0.68646  0.02076  0.01463  1.0000
  H   H23       1.0  0.59480  0.04803  0.02715  1.0000
  O   O23       1.0  0.54298  0.02863  0.01824  1.0000
  O   O24       1.0  0.51994  0.98255  0.99709  1.0000
  H   H24       1.0  0.55237  0.96315  0.98818  1.0000
  C   C73       1.0  0.01801  0.64589  0.00201  1.0000
  C   C74       1.0  0.03014  0.62978  0.99644  1.0000
  C   C75       1.0  0.01801  0.60155  0.00201  1.0000
  C   C76       1.0  0.99375  0.58943  0.01315  1.0000
  C   C77       1.0  0.98163  0.60553  0.01871  1.0000
  C   C78       1.0  0.99376  0.63377  0.01314  1.0000
  C   C79       1.0  0.98162  0.56120  0.01871  1.0000
  C   C80       1.0  0.99375  0.54509  0.01315  1.0000
  C   C81       1.0  0.01800  0.55721  0.00201  1.0000
  C   C82       1.0  0.03013  0.58544  0.99644  1.0000
  C   C83       1.0  0.03014  0.67412  0.99644  1.0000
  C   C84       1.0  0.05440  0.68624  0.98530  1.0000
  C   C85       1.0  0.06652  0.67013  0.97974  1.0000
  C   C86       1.0  0.05439  0.64190  0.98531  1.0000
  C   C87       1.0  0.98164  0.64987  0.01871  1.0000
  C   C88       1.0  0.95738  0.63775  0.02985  1.0000
  C   C89       1.0  0.94525  0.60952  0.03541  1.0000
  C   C90       1.0  0.95738  0.59341  0.02985  1.0000
  H   H25       1.0  0.96343  0.55210  0.02707  1.0000
  O   O25       1.0  0.98283  0.51968  0.01816  1.0000
  O   O26       1.0  0.02891  0.54272  0.99700  1.0000
  H   H26       1.0  0.04832  0.59454  0.98809  1.0000
  H   H27       1.0  0.02105  0.68620  0.00010  1.0000
  O   O27       1.0  0.06531  0.71165  0.98029  1.0000
  O   O28       1.0  0.08835  0.68105  0.96972  1.0000
  H   H28       1.0  0.06348  0.62982  0.98113  1.0000
  H   H29       1.0  0.99073  0.67105  0.01453  1.0000
  O   O29       1.0  0.94647  0.65225  0.03486  1.0000
  O   O30       1.0  0.92343  0.59861  0.04544  1.0000
  H   H30       1.0  0.94828  0.57224  0.03402  1.0000
  C   C91       1.0  0.37774  0.36534  0.01318  1.0000
  C   C92       1.0  0.40597  0.38145  0.01875  1.0000
  C   C93       1.0  0.42208  0.40968  0.01318  1.0000
  C   C94       1.0  0.40995  0.42180  0.00204  1.0000
  C   C95       1.0  0.38172  0.40570  0.99648  1.0000
  C   C96       1.0  0.36561  0.37747  0.00204  1.0000
  C   C97       1.0  0.42606  0.45003  0.99647  1.0000
  C   C98       1.0  0.45429  0.46614  0.00204  1.0000
  C   C99       1.0  0.46641  0.45402  0.01317  1.0000
  C   C100      1.0  0.45031  0.42579  0.01874  1.0000
  C   C101      1.0  0.36163  0.33711  0.01875  1.0000
  C   C102      1.0  0.37375  0.32499  0.02988  1.0000
  C   C103      1.0  0.40199  0.34109  0.03545  1.0000
  C   C104      1.0  0.41809  0.36932  0.02988  1.0000
  C   C105      1.0  0.33738  0.36136  0.99648  1.0000
  C   C106      1.0  0.32526  0.37349  0.98534  1.0000
  C   C107      1.0  0.34136  0.40172  0.97977  1.0000
  C   C108      1.0  0.36959  0.41782  0.98534  1.0000
  H   H31       1.0  0.41696  0.45913  0.98812  1.0000
  O   O31       1.0  0.46879  0.49155  0.99703  1.0000
  O   O32       1.0  0.49182  0.46851  0.01818  1.0000
  H   H32       1.0  0.45940  0.41669  0.02709  1.0000
  H   H33       1.0  0.34046  0.32503  0.01457  1.0000
  O   O33       1.0  0.35926  0.29958  0.03489  1.0000
  O   O34       1.0  0.41290  0.33018  0.04547  1.0000
  H   H34       1.0  0.43927  0.38140  0.03405  1.0000
  H   H35       1.0  0.32530  0.34019  0.00010  1.0000
  O   O35       1.0  0.29985  0.35899  0.98033  1.0000
  O   O36       1.0  0.33045  0.41263  0.96975  1.0000
  H   H36       1.0  0.38168  0.43900  0.98116  1.0000
  C   C109      1.0  0.03237  0.32692  0.33535  1.0000
  C   C110      1.0  0.04848  0.31479  0.32979  1.0000
  C   C111      1.0  0.07671  0.32692  0.33536  1.0000
  C   C112      1.0  0.08883  0.35117  0.34649  1.0000
  C   C113      1.0  0.07273  0.36330  0.35205  1.0000
  C   C114      1.0  0.04450  0.35117  0.34649  1.0000
  C   C115      1.0  0.11706  0.36330  0.35206  1.0000
  C   C116      1.0  0.13317  0.35118  0.34649  1.0000
  C   C117      1.0  0.12105  0.32692  0.33536  1.0000
  C   C118      1.0  0.09282  0.31479  0.32979  1.0000
  C   C119      1.0  0.00414  0.31479  0.32978  1.0000
  C   C120      1.0  0.99202  0.29053  0.31865  1.0000
  C   C121      1.0  0.00813  0.27841  0.31308  1.0000
  C   C122      1.0  0.03636  0.29054  0.31865  1.0000
  C   C123      1.0  0.02839  0.36330  0.35205  1.0000
  C   C124      1.0  0.04051  0.38755  0.36318  1.0000
  C   C125      1.0  0.06874  0.39968  0.36875  1.0000
  C   C126      1.0  0.08485  0.38755  0.36319  1.0000
  H   H37       1.0  0.12616  0.38149  0.36041  1.0000
  O   O37       1.0  0.15858  0.36209  0.35151  1.0000
  O   O38       1.0  0.13554  0.31601  0.33035  1.0000
  H   H38       1.0  0.08372  0.29660  0.32144  1.0000
  H   H39       1.0  0.99206  0.32388  0.33396  1.0000
  O   O39       1.0  0.96661  0.27962  0.31364  1.0000
  O   O40       1.0  0.99722  0.25658  0.30306  1.0000
  H   H40       1.0  0.04844  0.28144  0.31448  1.0000
  H   H41       1.0  0.00722  0.35420  0.34787  1.0000
  O   O41       1.0  0.02602  0.39846  0.36819  1.0000
  O   O42       1.0  0.07966  0.42151  0.37878  1.0000
  H   H42       1.0  0.10602  0.39665  0.36737  1.0000
  C   C127      1.0  0.64838  0.71487  0.35209  1.0000
  C   C128      1.0  0.66050  0.69876  0.34652  1.0000
  C   C129      1.0  0.68476  0.71089  0.33538  1.0000
  C   C130      1.0  0.69688  0.73912  0.32981  1.0000
  C   C131      1.0  0.68476  0.75523  0.33538  1.0000
  C   C132      1.0  0.66051  0.74310  0.34652  1.0000
  C   C133      1.0  0.72114  0.75125  0.31868  1.0000
  C   C134      1.0  0.73326  0.73514  0.31310  1.0000
  C   C135      1.0  0.72113  0.70691  0.31867  1.0000
  C   C136      1.0  0.69688  0.69478  0.32981  1.0000
  C   C137      1.0  0.62413  0.70274  0.36322  1.0000
  C   C138      1.0  0.61200  0.67451  0.36879  1.0000
  C   C139      1.0  0.62412  0.65841  0.36322  1.0000
  C   C140      1.0  0.64838  0.67053  0.35208  1.0000
  C   C141      1.0  0.64838  0.75921  0.35209  1.0000
  C   C142      1.0  0.66051  0.78744  0.34652  1.0000
  C   C143      1.0  0.68476  0.79956  0.33539  1.0000
  C   C144      1.0  0.69689  0.78346  0.32982  1.0000
  H   H43       1.0  0.73023  0.77242  0.31450  1.0000
  O   O43       1.0  0.75509  0.74605  0.30308  1.0000
  O   O44       1.0  0.73204  0.69241  0.31366  1.0000
  H   H44       1.0  0.68778  0.67361  0.33398  1.0000
  H   H45       1.0  0.61504  0.71482  0.36740  1.0000
  O   O45       1.0  0.59017  0.66360  0.37881  1.0000
  O   O46       1.0  0.61321  0.63300  0.36823  1.0000
  H   H46       1.0  0.65747  0.65845  0.34790  1.0000
  H   H47       1.0  0.63020  0.75011  0.36044  1.0000
  O   O47       1.0  0.64960  0.80193  0.35154  1.0000
  O   O48       1.0  0.69568  0.82497  0.33038  1.0000
  H   H48       1.0  0.71508  0.79255  0.32146  1.0000
  C   C145      1.0  0.27256  0.96321  0.32983  1.0000
  C   C146      1.0  0.30079  0.97932  0.33540  1.0000
  C   C147      1.0  0.31291  0.96719  0.34654  1.0000
  C   C148      1.0  0.29681  0.93896  0.35210  1.0000
  C   C149      1.0  0.26858  0.92285  0.34653  1.0000
  C   C150      1.0  0.25646  0.93498  0.33540  1.0000
  C   C151      1.0  0.30893  0.92683  0.36324  1.0000
  C   C152      1.0  0.33716  0.94294  0.36881  1.0000
  C   C153      1.0  0.35327  0.97117  0.36324  1.0000
  C   C154      1.0  0.34114  0.98330  0.35211  1.0000
  C   C155      1.0  0.26044  0.97534  0.31870  1.0000
  C   C156      1.0  0.27655  0.00357  0.31313  1.0000
  C   C157      1.0  0.30478  0.01968  0.31870  1.0000
  C   C158      1.0  0.31690  0.00755  0.32984  1.0000
  C   C159      1.0  0.22823  0.91887  0.32983  1.0000
  C   C160      1.0  0.21212  0.89064  0.33539  1.0000
  C   C161      1.0  0.22424  0.87851  0.34652  1.0000
  C   C162      1.0  0.25247  0.89462  0.35210  1.0000
  H   H49       1.0  0.29685  0.90566  0.36741  1.0000
  O   O49       1.0  0.34807  0.93203  0.37883  1.0000
  O   O50       1.0  0.37867  0.98567  0.36826  1.0000
  H   H50       1.0  0.35322  0.00447  0.34793  1.0000
  H   H51       1.0  0.23927  0.96326  0.31452  1.0000
  O   O51       1.0  0.26564  0.01448  0.30311  1.0000
  O   O52       1.0  0.31927  0.04509  0.31369  1.0000
  H   H52       1.0  0.33807  0.01963  0.33401  1.0000
  H   H53       1.0  0.21913  0.92797  0.32147  1.0000
  O   O53       1.0  0.18671  0.87615  0.33038  1.0000
  O   O54       1.0  0.20975  0.85311  0.35153  1.0000
  H   H54       1.0  0.26156  0.88553  0.36045  1.0000
  C   C163      1.0  0.29680  0.36329  0.35210  1.0000
  C   C164      1.0  0.31291  0.35116  0.34653  1.0000
  C   C165      1.0  0.30079  0.32690  0.33540  1.0000
  C   C166      1.0  0.27256  0.31478  0.32983  1.0000
  C   C167      1.0  0.25645  0.32690  0.33539  1.0000
  C   C168      1.0  0.26858  0.35116  0.34653  1.0000
  C   C169      1.0  0.26043  0.29052  0.31869  1.0000
  C   C170      1.0  0.27654  0.27840  0.31313  1.0000
  C   C171      1.0  0.30477  0.29052  0.31870  1.0000
  C   C172      1.0  0.31689  0.31478  0.32983  1.0000
  C   C173      1.0  0.30893  0.38754  0.36323  1.0000
  C   C174      1.0  0.33716  0.39967  0.36880  1.0000
  C   C175      1.0  0.35326  0.38754  0.36324  1.0000
  C   C176      1.0  0.34114  0.36329  0.35210  1.0000
  C   C177      1.0  0.25247  0.36328  0.35209  1.0000
  C   C178      1.0  0.22424  0.35116  0.34652  1.0000
  C   C179      1.0  0.21212  0.32690  0.33539  1.0000
  C   C180      1.0  0.22822  0.31478  0.32982  1.0000
  H   H55       1.0  0.23926  0.28143  0.31451  1.0000
  O   O55       1.0  0.26563  0.25657  0.30311  1.0000
  O   O56       1.0  0.31926  0.27961  0.31369  1.0000
  H   H56       1.0  0.33806  0.32387  0.33401  1.0000
  H   H57       1.0  0.29685  0.39663  0.36740  1.0000
  O   O57       1.0  0.34807  0.42149  0.37882  1.0000
  O   O58       1.0  0.37867  0.39845  0.36825  1.0000
  H   H58       1.0  0.35322  0.35419  0.34793  1.0000
  H   H59       1.0  0.26156  0.38148  0.36044  1.0000
  O   O59       1.0  0.20974  0.36207  0.35153  1.0000
  O   O60       1.0  0.18671  0.31599  0.33037  1.0000
  H   H60       1.0  0.21913  0.29659  0.32147  1.0000
  C   C181      1.0  0.68479  0.97932  0.33541  1.0000
  C   C182      1.0  0.69691  0.96321  0.32984  1.0000
  C   C183      1.0  0.68478  0.93498  0.33541  1.0000
  C   C184      1.0  0.66053  0.92286  0.34654  1.0000
  C   C185      1.0  0.64841  0.93897  0.35211  1.0000
  C   C186      1.0  0.66054  0.96720  0.34654  1.0000
  C   C187      1.0  0.64840  0.89463  0.35211  1.0000
  C   C188      1.0  0.66053  0.87852  0.34654  1.0000
  C   C189      1.0  0.68478  0.89065  0.33541  1.0000
  C   C190      1.0  0.69691  0.91888  0.32984  1.0000
  C   C191      1.0  0.69692  0.00755  0.32984  1.0000
  C   C192      1.0  0.72117  0.01967  0.31870  1.0000
  C   C193      1.0  0.73329  0.00357  0.31313  1.0000
  C   C194      1.0  0.72116  0.97534  0.31870  1.0000
  C   C195      1.0  0.64841  0.98330  0.35211  1.0000
  C   C196      1.0  0.62416  0.97118  0.36325  1.0000
  C   C197      1.0  0.61203  0.94295  0.36882  1.0000
  C   C198      1.0  0.62416  0.92684  0.36325  1.0000
  H   H61       1.0  0.63021  0.88554  0.36046  1.0000
  O   O61       1.0  0.64961  0.85311  0.35155  1.0000
  O   O62       1.0  0.69569  0.87615  0.33039  1.0000
  H   H62       1.0  0.71510  0.92797  0.32149  1.0000
  H   H63       1.0  0.68782  0.01963  0.33401  1.0000
  O   O63       1.0  0.73208  0.04508  0.31369  1.0000
  O   O64       1.0  0.75512  0.01448  0.30311  1.0000
  H   H64       1.0  0.73026  0.96326  0.31452  1.0000
  H   H65       1.0  0.65751  0.00448  0.34794  1.0000
  O   O65       1.0  0.61325  0.98568  0.36826  1.0000
  O   O66       1.0  0.59020  0.93204  0.37884  1.0000
  H   H66       1.0  0.61506  0.90567  0.36742  1.0000
  C   C199      1.0  0.04447  0.69874  0.34648  1.0000
  C   C200      1.0  0.07270  0.71485  0.35205  1.0000
  C   C201      1.0  0.08881  0.74308  0.34649  1.0000
  C   C202      1.0  0.07669  0.75521  0.33535  1.0000
  C   C203      1.0  0.04846  0.73910  0.32978  1.0000
  C   C204      1.0  0.03235  0.71087  0.33535  1.0000
  C   C205      1.0  0.09280  0.78344  0.32979  1.0000
  C   C206      1.0  0.12103  0.79954  0.33536  1.0000
  C   C207      1.0  0.13315  0.78742  0.34649  1.0000
  C   C208      1.0  0.11704  0.75918  0.35206  1.0000
  C   C209      1.0  0.02837  0.67051  0.35205  1.0000
  C   C210      1.0  0.04049  0.65838  0.36318  1.0000
  C   C211      1.0  0.06872  0.67449  0.36875  1.0000
  C   C212      1.0  0.08483  0.70272  0.36319  1.0000
  C   C213      1.0  0.00412  0.69476  0.32978  1.0000
  C   C214      1.0  0.99200  0.70689  0.31864  1.0000
  C   C215      1.0  0.00811  0.73512  0.31308  1.0000
  C   C216      1.0  0.03634  0.75123  0.31865  1.0000
  H   H67       1.0  0.08371  0.79253  0.32144  1.0000
  O   O67       1.0  0.13553  0.82495  0.33035  1.0000
  O   O68       1.0  0.15856  0.80191  0.35151  1.0000
  H   H68       1.0  0.12613  0.75009  0.36041  1.0000
  H   H69       1.0  0.00719  0.65843  0.34787  1.0000
  O   O69       1.0  0.02599  0.63297  0.36819  1.0000
  O   O70       1.0  0.07963  0.66357  0.37877  1.0000
  H   H70       1.0  0.10600  0.71480  0.36736  1.0000
  H   H71       1.0  0.99204  0.67359  0.33395  1.0000
  O   O71       1.0  0.96659  0.69240  0.31363  1.0000
  O   O72       1.0  0.99720  0.74604  0.30306  1.0000
  H   H72       1.0  0.04842  0.77240  0.31448  1.0000
  C   C217      1.0  0.69904  0.66026  0.66869  1.0000
  C   C218      1.0  0.71514  0.64814  0.66313  1.0000
  C   C219      1.0  0.74337  0.66027  0.66869  1.0000
  C   C220      1.0  0.75550  0.68452  0.67983  1.0000
  C   C221      1.0  0.73939  0.69664  0.68540  1.0000
  C   C222      1.0  0.71116  0.68451  0.67983  1.0000
  C   C223      1.0  0.78373  0.69665  0.68540  1.0000
  C   C224      1.0  0.79983  0.68452  0.67983  1.0000
  C   C225      1.0  0.78771  0.66027  0.66869  1.0000
  C   C226      1.0  0.75948  0.64814  0.66312  1.0000
  C   C227      1.0  0.67080  0.64813  0.66313  1.0000
  C   C228      1.0  0.65868  0.62388  0.65199  1.0000
  C   C229      1.0  0.67479  0.61176  0.64642  1.0000
  C   C230      1.0  0.70302  0.62389  0.65199  1.0000
  C   C231      1.0  0.69505  0.69664  0.68540  1.0000
  C   C232      1.0  0.70718  0.72089  0.69654  1.0000
  C   C233      1.0  0.73541  0.73302  0.70210  1.0000
  C   C234      1.0  0.75152  0.72089  0.69653  1.0000
  H   H73       1.0  0.79282  0.71484  0.69375  1.0000
  O   O73       1.0  0.82524  0.69544  0.68484  1.0000
  O   O74       1.0  0.80221  0.64936  0.66368  1.0000
  H   H74       1.0  0.75039  0.62995  0.65477  1.0000
  H   H75       1.0  0.65872  0.65723  0.66730  1.0000
  O   O75       1.0  0.63327  0.61297  0.64698  1.0000
  O   O76       1.0  0.66387  0.58993  0.63640  1.0000
  H   H76       1.0  0.71510  0.61479  0.64781  1.0000
  H   H77       1.0  0.67388  0.68754  0.68122  1.0000
  O   O77       1.0  0.69268  0.73180  0.70155  1.0000
  O   O78       1.0  0.74632  0.75484  0.71213  1.0000
  H   H78       1.0  0.77269  0.72999  0.70071  1.0000
  C   C235      1.0  0.31506  0.04823  0.68545  1.0000
  C   C236      1.0  0.32719  0.03213  0.67989  1.0000
  C   C237      1.0  0.35144  0.04425  0.66875  1.0000
  C   C238      1.0  0.36357  0.07248  0.66318  1.0000
  C   C239      1.0  0.35144  0.08859  0.66875  1.0000
  C   C240      1.0  0.32719  0.07646  0.67988  1.0000
  C   C241      1.0  0.38782  0.08460  0.65205  1.0000
  C   C242      1.0  0.39995  0.06850  0.64648  1.0000
  C   C243      1.0  0.38782  0.04027  0.65205  1.0000
  C   C244      1.0  0.36357  0.02814  0.66319  1.0000
  C   C245      1.0  0.29081  0.03611  0.69659  1.0000
  C   C246      1.0  0.27868  0.00788  0.70216  1.0000
  C   C247      1.0  0.29080  0.99177  0.69659  1.0000
  C   C248      1.0  0.31506  0.00390  0.68546  1.0000
  C   C249      1.0  0.31506  0.09257  0.68545  1.0000
  C   C250      1.0  0.32719  0.12080  0.67988  1.0000
  C   C251      1.0  0.35145  0.13292  0.66875  1.0000
  C   C252      1.0  0.36357  0.11682  0.66318  1.0000
  H   H79       1.0  0.39692  0.10578  0.64787  1.0000
  O   O79       1.0  0.42178  0.07941  0.63646  1.0000
  O   O80       1.0  0.39873  0.02577  0.64704  1.0000
  H   H80       1.0  0.35447  0.00697  0.66736  1.0000
  H   H81       1.0  0.28171  0.04819  0.70076  1.0000
  O   O81       1.0  0.25685  0.99697  0.71218  1.0000
  O   O82       1.0  0.27989  0.96636  0.70160  1.0000
  H   H82       1.0  0.32415  0.99182  0.68128  1.0000
  H   H83       1.0  0.29687  0.08348  0.69380  1.0000
  O   O83       1.0  0.31628  0.13529  0.68489  1.0000
  O   O84       1.0  0.36236  0.15833  0.66373  1.0000
  H   H84       1.0  0.38176  0.12591  0.65483  1.0000
  C   C253      1.0  0.93923  0.29656  0.66313  1.0000
  C   C254      1.0  0.96746  0.31266  0.66869  1.0000
  C   C255      1.0  0.97959  0.30054  0.67983  1.0000
  C   C256      1.0  0.96348  0.27231  0.68540  1.0000
  C   C257      1.0  0.93525  0.25620  0.67983  1.0000
  C   C258      1.0  0.92312  0.26833  0.66870  1.0000
  C   C259      1.0  0.97561  0.26019  0.69653  1.0000
  C   C260      1.0  0.00384  0.27630  0.70210  1.0000
  C   C261      1.0  0.01995  0.30453  0.69652  1.0000
  C   C262      1.0  0.00782  0.31665  0.68539  1.0000
  C   C263      1.0  0.92710  0.30868  0.65199  1.0000
  C   C264      1.0  0.94321  0.33691  0.64642  1.0000
  C   C265      1.0  0.97144  0.35302  0.65199  1.0000
  C   C266      1.0  0.98357  0.34089  0.66312  1.0000
  C   C267      1.0  0.89489  0.25222  0.66313  1.0000
  C   C268      1.0  0.87879  0.22399  0.66870  1.0000
  C   C269      1.0  0.89091  0.21187  0.67984  1.0000
  C   C270      1.0  0.91915  0.22797  0.68540  1.0000
  H   H85       1.0  0.96353  0.23902  0.70071  1.0000
  O   O85       1.0  0.01476  0.26539  0.71212  1.0000
  O   O86       1.0  0.04536  0.31902  0.70153  1.0000
  H   H86       1.0  0.01990  0.33782  0.68121  1.0000
  H   H87       1.0  0.90593  0.29660  0.64782  1.0000
  O   O87       1.0  0.93229  0.34782  0.63640  1.0000
  O   O88       1.0  0.98593  0.37842  0.64697  1.0000
  H   H88       1.0  0.00474  0.35297  0.66729  1.0000
  H   H89       1.0  0.88580  0.26131  0.65478  1.0000
  O   O89       1.0  0.85338  0.20949  0.66369  1.0000
  O   O90       1.0  0.87642  0.18646  0.68485  1.0000
  H   H90       1.0  0.92824  0.21888  0.69375  1.0000
  C   C271      1.0  0.96348  0.69665  0.68540  1.0000
  C   C272      1.0  0.97959  0.68453  0.67983  1.0000
  C   C273      1.0  0.96746  0.66027  0.66870  1.0000
  C   C274      1.0  0.93923  0.64815  0.66313  1.0000
  C   C275      1.0  0.92313  0.66027  0.66869  1.0000
  C   C276      1.0  0.93525  0.68452  0.67983  1.0000
  C   C277      1.0  0.92711  0.62390  0.65199  1.0000
  C   C278      1.0  0.94321  0.61177  0.64642  1.0000
  C   C279      1.0  0.97144  0.62390  0.65199  1.0000
  C   C280      1.0  0.98357  0.64815  0.66313  1.0000
  C   C281      1.0  0.97560  0.72090  0.69654  1.0000
  C   C282      1.0  0.00383  0.73303  0.70211  1.0000
  C   C283      1.0  0.01994  0.72090  0.69654  1.0000
  C   C284      1.0  0.00782  0.69665  0.68540  1.0000
  C   C285      1.0  0.91914  0.69665  0.68540  1.0000
  C   C286      1.0  0.89091  0.68452  0.67983  1.0000
  C   C287      1.0  0.87879  0.66027  0.66869  1.0000
  C   C288      1.0  0.89490  0.64815  0.66312  1.0000
  H   H91       1.0  0.90594  0.61480  0.64781  1.0000
  O   O91       1.0  0.93230  0.58994  0.63640  1.0000
  O   O92       1.0  0.98594  0.61298  0.64698  1.0000
  H   H92       1.0  0.00474  0.65724  0.66731  1.0000
  H   H93       1.0  0.96352  0.73000  0.70071  1.0000
  O   O93       1.0  0.01474  0.75486  0.71213  1.0000
  O   O94       1.0  0.04535  0.73182  0.70155  1.0000
  H   H94       1.0  0.01990  0.68756  0.68123  1.0000
  H   H95       1.0  0.92824  0.71484  0.69375  1.0000
  O   O95       1.0  0.87642  0.69544  0.68484  1.0000
  O   O96       1.0  0.85338  0.64936  0.66368  1.0000
  H   H96       1.0  0.88580  0.62996  0.65477  1.0000
  C   C289      1.0  0.35144  0.31267  0.66870  1.0000
  C   C290      1.0  0.36356  0.29656  0.66314  1.0000
  C   C291      1.0  0.35144  0.26833  0.66871  1.0000
  C   C292      1.0  0.32718  0.25621  0.67985  1.0000
  C   C293      1.0  0.31506  0.27232  0.68541  1.0000
  C   C294      1.0  0.32719  0.30054  0.67984  1.0000
  C   C295      1.0  0.31506  0.22798  0.68542  1.0000
  C   C296      1.0  0.32718  0.21187  0.67985  1.0000
  C   C297      1.0  0.35144  0.22400  0.66872  1.0000
  C   C298      1.0  0.36356  0.25222  0.66315  1.0000
  C   C299      1.0  0.36357  0.34090  0.66313  1.0000
  C   C300      1.0  0.38782  0.35302  0.65200  1.0000
  C   C301      1.0  0.39995  0.33691  0.64643  1.0000
  C   C302      1.0  0.38782  0.30868  0.65200  1.0000
  C   C303      1.0  0.31506  0.31665  0.68540  1.0000
  C   C304      1.0  0.29081  0.30453  0.69654  1.0000
  C   C305      1.0  0.27868  0.27630  0.70211  1.0000
  C   C306      1.0  0.29080  0.26019  0.69654  1.0000
  H   H97       1.0  0.29687  0.21889  0.69377  1.0000
  O   O97       1.0  0.31627  0.18647  0.68487  1.0000
  O   O98       1.0  0.36235  0.20950  0.66371  1.0000
  H   H98       1.0  0.38175  0.26132  0.65479  1.0000
  H   H99       1.0  0.35447  0.35298  0.66730  1.0000
  O   O99       1.0  0.39873  0.37842  0.64698  1.0000
  O   O100      1.0  0.42177  0.34782  0.63641  1.0000
  H   H100      1.0  0.39691  0.29660  0.64783  1.0000
  H   H101      1.0  0.32415  0.33782  0.68122  1.0000
  O   O101      1.0  0.27989  0.31903  0.70154  1.0000
  O   O102      1.0  0.25685  0.26539  0.71213  1.0000
  H   H102      1.0  0.28171  0.23902  0.70072  1.0000
  C   C307      1.0  0.71114  0.03210  0.67988  1.0000
  C   C308      1.0  0.73937  0.04821  0.68544  1.0000
  C   C309      1.0  0.75548  0.07644  0.67987  1.0000
  C   C310      1.0  0.74335  0.08856  0.66874  1.0000
  C   C311      1.0  0.71512  0.07246  0.66317  1.0000
  C   C312      1.0  0.69901  0.04423  0.66874  1.0000
  C   C313      1.0  0.75946  0.11680  0.66317  1.0000
  C   C314      1.0  0.78769  0.13290  0.66874  1.0000
  C   C315      1.0  0.79981  0.12078  0.67987  1.0000
  C   C316      1.0  0.78371  0.09255  0.68544  1.0000
  C   C317      1.0  0.69503  0.00387  0.68545  1.0000
  C   C318      1.0  0.70716  0.99175  0.69658  1.0000
  C   C319      1.0  0.73539  0.00786  0.70214  1.0000
  C   C320      1.0  0.75150  0.03609  0.69658  1.0000
  C   C321      1.0  0.67078  0.02812  0.66318  1.0000
  C   C322      1.0  0.65865  0.04024  0.65205  1.0000
  C   C323      1.0  0.67476  0.06848  0.64648  1.0000
  C   C324      1.0  0.70299  0.08458  0.65204  1.0000
  H   H103      1.0  0.75036  0.12589  0.65482  1.0000
  O   O103      1.0  0.80218  0.15831  0.66372  1.0000
  O   O104      1.0  0.82522  0.13527  0.68488  1.0000
  H   H104      1.0  0.79280  0.08345  0.69379  1.0000
  H   H105      1.0  0.67386  0.99179  0.68127  1.0000
  O   O105      1.0  0.69266  0.96634  0.70159  1.0000
  O   O106      1.0  0.74631  0.99694  0.71217  1.0000
  H   H106      1.0  0.77267  0.04817  0.70075  1.0000
  H   H107      1.0  0.65870  0.00695  0.66736  1.0000
  O   O107      1.0  0.63324  0.02575  0.64704  1.0000
  O   O108      1.0  0.66384  0.07939  0.63646  1.0000
  H   H108      1.0  0.71507  0.10575  0.64786  1.0000
  C   C325      1.0  0.37951  0.17964  0.07562  1.0000
  C   C326      1.0  0.37364  0.16391  0.09204  1.0000
  C   C327      1.0  0.36777  0.17378  0.10846  1.0000
  C   C328      1.0  0.36777  0.19937  0.10846  1.0000
  C   C329      1.0  0.37364  0.21510  0.09204  1.0000
  C   C330      1.0  0.37951  0.20524  0.07562  1.0000
  C   C331      1.0  0.36190  0.20924  0.12488  1.0000
  C   C332      1.0  0.35603  0.19351  0.14130  1.0000
  C   C333      1.0  0.35603  0.16791  0.14130  1.0000
  C   C334      1.0  0.36190  0.15805  0.12488  1.0000
  C   C335      1.0  0.38537  0.16977  0.05920  1.0000
  C   C336      1.0  0.38537  0.14418  0.05920  1.0000
  C   C337      1.0  0.37951  0.12845  0.07562  1.0000
  C   C338      1.0  0.37364  0.13831  0.09204  1.0000
  C   C339      1.0  0.38537  0.22097  0.05920  1.0000
  C   C340      1.0  0.38537  0.24656  0.05920  1.0000
  C   C341      1.0  0.37951  0.25643  0.07562  1.0000
  C   C342      1.0  0.37364  0.24070  0.09204  1.0000
  H   H109      1.0  0.36190  0.22844  0.12488  1.0000
  O   O109      1.0  0.35075  0.20239  0.15608  1.0000
  O   O110      1.0  0.35075  0.15376  0.15608  1.0000
  H   H110      1.0  0.36190  0.13885  0.12488  1.0000
  H   H111      1.0  0.38978  0.18157  0.04688  1.0000
  O   O111      1.0  0.39066  0.13530  0.04442  1.0000
  O   O112      1.0  0.37951  0.10541  0.07562  1.0000
  H   H112      1.0  0.36924  0.12651  0.10436  1.0000
  H   H113      1.0  0.38978  0.21357  0.04688  1.0000
  O   O113      1.0  0.39065  0.26072  0.04442  1.0000
  O   O114      1.0  0.37951  0.27947  0.07562  1.0000
  H   H114      1.0  0.36924  0.24810  0.10436  1.0000
  C   C343      1.0  0.83185  0.20528  0.07565  1.0000
  C   C344      1.0  0.84759  0.21514  0.09207  1.0000
  C   C345      1.0  0.83773  0.19941  0.10849  1.0000
  C   C346      1.0  0.81214  0.17381  0.10849  1.0000
  C   C347      1.0  0.79639  0.16394  0.09208  1.0000
  C   C348      1.0  0.80625  0.17968  0.07565  1.0000
  C   C349      1.0  0.80228  0.15808  0.12491  1.0000
  C   C350      1.0  0.81802  0.16794  0.14133  1.0000
  C   C351      1.0  0.84362  0.19354  0.14132  1.0000
  C   C352      1.0  0.85348  0.20927  0.12490  1.0000
  C   C353      1.0  0.84170  0.22101  0.05923  1.0000
  C   C354      1.0  0.86730  0.24661  0.05923  1.0000
  C   C355      1.0  0.88304  0.25647  0.07564  1.0000
  C   C356      1.0  0.87319  0.24074  0.09206  1.0000
  C   C357      1.0  0.79050  0.16981  0.05924  1.0000
  C   C358      1.0  0.76491  0.14421  0.05924  1.0000
  C   C359      1.0  0.75505  0.12848  0.07566  1.0000
  C   C360      1.0  0.77079  0.13835  0.09208  1.0000
  H   H115      1.0  0.78308  0.13888  0.12491  1.0000
  O   O115      1.0  0.80916  0.15378  0.15611  1.0000
  O   O116      1.0  0.85779  0.20242  0.15610  1.0000
  H   H116      1.0  0.87268  0.22847  0.12490  1.0000
  H   H117      1.0  0.82989  0.21361  0.04692  1.0000
  O   O117      1.0  0.87617  0.26077  0.04445  1.0000
  O   O118      1.0  0.90608  0.27951  0.07564  1.0000
  H   H118      1.0  0.88499  0.24814  0.10437  1.0000
  H   H119      1.0  0.79790  0.18161  0.04692  1.0000
  O   O119      1.0  0.75074  0.13534  0.04447  1.0000
  O   O120      1.0  0.73201  0.10544  0.07567  1.0000
  H   H120      1.0  0.76340  0.12655  0.10439  1.0000
  C   C361      1.0  0.81217  0.64376  0.10845  1.0000
  C   C362      1.0  0.83776  0.64376  0.10845  1.0000
  C   C363      1.0  0.84762  0.63788  0.09203  1.0000
  C   C364      1.0  0.83188  0.63199  0.07561  1.0000
  C   C365      1.0  0.80629  0.63200  0.07561  1.0000
  C   C366      1.0  0.79643  0.63788  0.09203  1.0000
  C   C367      1.0  0.84174  0.62611  0.05919  1.0000
  C   C368      1.0  0.86734  0.62611  0.05919  1.0000
  C   C369      1.0  0.88308  0.63199  0.07561  1.0000
  C   C370      1.0  0.87322  0.63787  0.09203  1.0000
  C   C371      1.0  0.80231  0.64964  0.12487  1.0000
  C   C372      1.0  0.81805  0.65552  0.14129  1.0000
  C   C373      1.0  0.84365  0.65552  0.14128  1.0000
  C   C374      1.0  0.85350  0.64964  0.12487  1.0000
  C   C375      1.0  0.77083  0.63788  0.09204  1.0000
  C   C376      1.0  0.75509  0.63200  0.07562  1.0000
  C   C377      1.0  0.76495  0.62612  0.05920  1.0000
  C   C378      1.0  0.79055  0.62612  0.05920  1.0000
  H   H121      1.0  0.82994  0.62170  0.04688  1.0000
  O   O121      1.0  0.87621  0.62082  0.04441  1.0000
  O   O122      1.0  0.90611  0.63199  0.07560  1.0000
  H   H122      1.0  0.88502  0.64228  0.10434  1.0000
  H   H123      1.0  0.78311  0.64964  0.12487  1.0000
  O   O123      1.0  0.80918  0.66081  0.15607  1.0000
  O   O124      1.0  0.85781  0.66081  0.15606  1.0000
  H   H124      1.0  0.87270  0.64964  0.12486  1.0000
  H   H125      1.0  0.76344  0.64229  0.10435  1.0000
  O   O125      1.0  0.73206  0.63200  0.07562  1.0000
  O   O126      1.0  0.75079  0.62083  0.04442  1.0000
  H   H126      1.0  0.79794  0.62171  0.04688  1.0000
  C   C379      1.0  0.17405  0.36752  0.90677  1.0000
  C   C380      1.0  0.19964  0.36751  0.90677  1.0000
  C   C381      1.0  0.21537  0.37338  0.92319  1.0000
  C   C382      1.0  0.20550  0.37925  0.93961  1.0000
  C   C383      1.0  0.17991  0.37925  0.93961  1.0000
  C   C384      1.0  0.16418  0.37338  0.92319  1.0000
  C   C385      1.0  0.22123  0.38511  0.95603  1.0000
  C   C386      1.0  0.24683  0.38511  0.95603  1.0000
  C   C387      1.0  0.25670  0.37925  0.93961  1.0000
  C   C388      1.0  0.24097  0.37338  0.92319  1.0000
  C   C389      1.0  0.15832  0.36165  0.89034  1.0000
  C   C390      1.0  0.16818  0.35578  0.87392  1.0000
  C   C391      1.0  0.19378  0.35578  0.87392  1.0000
  C   C392      1.0  0.20951  0.36165  0.89034  1.0000
  C   C393      1.0  0.13858  0.37338  0.92319  1.0000
  C   C394      1.0  0.12871  0.37925  0.93961  1.0000
  C   C395      1.0  0.14444  0.38511  0.95603  1.0000
  C   C396      1.0  0.17004  0.38511  0.95603  1.0000
  H   H127      1.0  0.21383  0.38951  0.96834  1.0000
  O   O127      1.0  0.26099  0.39039  0.97081  1.0000
  O   O128      1.0  0.27974  0.37925  0.93961  1.0000
  H   H128      1.0  0.24837  0.36898  0.91087  1.0000
  H   H129      1.0  0.13912  0.36165  0.89034  1.0000
  O   O129      1.0  0.15403  0.35051  0.85915  1.0000
  O   O130      1.0  0.20266  0.35050  0.85914  1.0000
  H   H130      1.0  0.22871  0.36165  0.89034  1.0000
  H   H131      1.0  0.12678  0.36898  0.91087  1.0000
  O   O131      1.0  0.10568  0.37925  0.93961  1.0000
  O   O132      1.0  0.13556  0.39039  0.97081  1.0000
  H   H132      1.0  0.18184  0.38951  0.96834  1.0000
  C   C397      1.0  0.63226  0.80601  0.93961  1.0000
  C   C398      1.0  0.63814  0.79616  0.92318  1.0000
  C   C399      1.0  0.64402  0.81190  0.90677  1.0000
  C   C400      1.0  0.64402  0.83750  0.90677  1.0000
  C   C401      1.0  0.63813  0.84735  0.92319  1.0000
  C   C402      1.0  0.63226  0.83161  0.93961  1.0000
  C   C403      1.0  0.64989  0.85324  0.89036  1.0000
  C   C404      1.0  0.65578  0.84338  0.87394  1.0000
  C   C405      1.0  0.65578  0.81779  0.87393  1.0000
  C   C406      1.0  0.64990  0.80205  0.89035  1.0000
  C   C407      1.0  0.62638  0.79027  0.95602  1.0000
  C   C408      1.0  0.62638  0.76468  0.95602  1.0000
  C   C409      1.0  0.63226  0.75482  0.93960  1.0000
  C   C410      1.0  0.63814  0.77056  0.92318  1.0000
  C   C411      1.0  0.62637  0.84146  0.95603  1.0000
  C   C412      1.0  0.62637  0.86706  0.95604  1.0000
  C   C413      1.0  0.63225  0.88280  0.93962  1.0000
  C   C414      1.0  0.63813  0.87295  0.92320  1.0000
  H   H133      1.0  0.64989  0.87244  0.89036  1.0000
  O   O133      1.0  0.66107  0.85755  0.85916  1.0000
  O   O134      1.0  0.66107  0.80892  0.85915  1.0000
  H   H134      1.0  0.64990  0.78285  0.89034  1.0000
  H   H135      1.0  0.62197  0.79766  0.96834  1.0000
  O   O135      1.0  0.62109  0.75051  0.97079  1.0000
  O   O136      1.0  0.63227  0.73179  0.93959  1.0000
  H   H136      1.0  0.64255  0.76317  0.91086  1.0000
  H   H137      1.0  0.62197  0.82966  0.96834  1.0000
  O   O137      1.0  0.62108  0.87593  0.97082  1.0000
  O   O138      1.0  0.63225  0.90584  0.93962  1.0000
  H   H138      1.0  0.64254  0.88475  0.91089  1.0000
  C   C415      1.0  0.20556  0.83157  0.93958  1.0000
  C   C416      1.0  0.21542  0.84732  0.92317  1.0000
  C   C417      1.0  0.19969  0.83746  0.90675  1.0000
  C   C418      1.0  0.17409  0.81186  0.90674  1.0000
  C   C419      1.0  0.16423  0.79612  0.92316  1.0000
  C   C420      1.0  0.17996  0.80598  0.93958  1.0000
  C   C421      1.0  0.15836  0.80201  0.89032  1.0000
  C   C422      1.0  0.16822  0.81775  0.87391  1.0000
  C   C423      1.0  0.19382  0.84335  0.87391  1.0000
  C   C424      1.0  0.20955  0.85321  0.89033  1.0000
  C   C425      1.0  0.22129  0.84143  0.95600  1.0000
  C   C426      1.0  0.24689  0.86703  0.95601  1.0000
  C   C427      1.0  0.25676  0.88277  0.93959  1.0000
  C   C428      1.0  0.24102  0.87292  0.92317  1.0000
  C   C429      1.0  0.17010  0.79023  0.95600  1.0000
  C   C430      1.0  0.14450  0.76463  0.95599  1.0000
  C   C431      1.0  0.12876  0.75478  0.93957  1.0000
  C   C432      1.0  0.13863  0.77052  0.92316  1.0000
  H   H139      1.0  0.13916  0.78281  0.89032  1.0000
  O   O139      1.0  0.15406  0.80888  0.85913  1.0000
  O   O140      1.0  0.20270  0.85752  0.85914  1.0000
  H   H140      1.0  0.22875  0.87240  0.89033  1.0000
  H   H141      1.0  0.21390  0.82962  0.96832  1.0000
  O   O141      1.0  0.26105  0.87590  0.97079  1.0000
  O   O142      1.0  0.27979  0.90581  0.93959  1.0000
  H   H142      1.0  0.24842  0.88472  0.91086  1.0000
  H   H143      1.0  0.18190  0.79762  0.96831  1.0000
  O   O143      1.0  0.13562  0.75047  0.97077  1.0000
  O   O144      1.0  0.10572  0.73174  0.93957  1.0000
  H   H144      1.0  0.12683  0.76313  0.91084  1.0000
  C   C433      1.0  0.04626  0.51305  0.40893  1.0000
  C   C434      1.0  0.04038  0.49732  0.42535  1.0000
  C   C435      1.0  0.03451  0.50718  0.44177  1.0000
  C   C436      1.0  0.03451  0.53278  0.44177  1.0000
  C   C437      1.0  0.04038  0.54851  0.42535  1.0000
  C   C438      1.0  0.04626  0.53865  0.40893  1.0000
  C   C439      1.0  0.02863  0.54264  0.45819  1.0000
  C   C440      1.0  0.02276  0.52690  0.47461  1.0000
  C   C441      1.0  0.02276  0.50131  0.47461  1.0000
  C   C442      1.0  0.02863  0.49145  0.45819  1.0000
  C   C443      1.0  0.05213  0.50319  0.39251  1.0000
  C   C444      1.0  0.05213  0.47759  0.39251  1.0000
  C   C445      1.0  0.04626  0.46186  0.40893  1.0000
  C   C446      1.0  0.04038  0.47172  0.42535  1.0000
  C   C447      1.0  0.05213  0.55438  0.39252  1.0000
  C   C448      1.0  0.05213  0.57998  0.39252  1.0000
  C   C449      1.0  0.04625  0.58984  0.40894  1.0000
  C   C450      1.0  0.04038  0.57411  0.42535  1.0000
  H   H145      1.0  0.02863  0.56184  0.45819  1.0000
  O   O145      1.0  0.01747  0.53578  0.48939  1.0000
  O   O146      1.0  0.01747  0.48715  0.48939  1.0000
  H   H146      1.0  0.02863  0.47225  0.45819  1.0000
  H   H147      1.0  0.05654  0.51499  0.38020  1.0000
  O   O147      1.0  0.05742  0.46872  0.37774  1.0000
  O   O148      1.0  0.04626  0.43882  0.40893  1.0000
  H   H148      1.0  0.03598  0.45992  0.43767  1.0000
  H   H149      1.0  0.05654  0.54699  0.38020  1.0000
  O   O149      1.0  0.05741  0.59414  0.37774  1.0000
  O   O150      1.0  0.04625  0.61288  0.40894  1.0000
  H   H150      1.0  0.03597  0.58150  0.43767  1.0000
  C   C451      1.0  0.49860  0.53868  0.40897  1.0000
  C   C452      1.0  0.51433  0.54854  0.42539  1.0000
  C   C453      1.0  0.50447  0.53280  0.44180  1.0000
  C   C454      1.0  0.47888  0.50720  0.44180  1.0000
  C   C455      1.0  0.46314  0.49734  0.42539  1.0000
  C   C456      1.0  0.47300  0.51308  0.40897  1.0000
  C   C457      1.0  0.46902  0.49147  0.45822  1.0000
  C   C458      1.0  0.48476  0.50133  0.47464  1.0000
  C   C459      1.0  0.51035  0.52693  0.47464  1.0000
  C   C460      1.0  0.52021  0.54266  0.45822  1.0000
  C   C461      1.0  0.50846  0.55441  0.39255  1.0000
  C   C462      1.0  0.53405  0.58001  0.39255  1.0000
  C   C463      1.0  0.54979  0.58987  0.40897  1.0000
  C   C464      1.0  0.53993  0.57414  0.42538  1.0000
  C   C465      1.0  0.45726  0.50322  0.39255  1.0000
  C   C466      1.0  0.43166  0.47762  0.39255  1.0000
  C   C467      1.0  0.42180  0.46188  0.40897  1.0000
  C   C468      1.0  0.43754  0.47174  0.42539  1.0000
  H   H151      1.0  0.44982  0.47227  0.45822  1.0000
  O   O151      1.0  0.47588  0.48716  0.48942  1.0000
  O   O152      1.0  0.52452  0.53580  0.48942  1.0000
  H   H152      1.0  0.53941  0.56186  0.45822  1.0000
  H   H153      1.0  0.49665  0.54702  0.38024  1.0000
  O   O153      1.0  0.54293  0.59418  0.37777  1.0000
  O   O154      1.0  0.57283  0.61291  0.40897  1.0000
  H   H154      1.0  0.55174  0.58153  0.43770  1.0000
  H   H155      1.0  0.46465  0.51502  0.38024  1.0000
  O   O155      1.0  0.41750  0.46874  0.37777  1.0000
  O   O156      1.0  0.39876  0.43884  0.40897  1.0000
  H   H156      1.0  0.43015  0.45994  0.43770  1.0000
  C   C469      1.0  0.47889  0.97715  0.44182  1.0000
  C   C470      1.0  0.50449  0.97715  0.44182  1.0000
  C   C471      1.0  0.51435  0.97127  0.42540  1.0000
  C   C472      1.0  0.49862  0.96540  0.40898  1.0000
  C   C473      1.0  0.47302  0.96540  0.40898  1.0000
  C   C474      1.0  0.46316  0.97127  0.42540  1.0000
  C   C475      1.0  0.50848  0.95952  0.39256  1.0000
  C   C476      1.0  0.53408  0.95952  0.39256  1.0000
  C   C477      1.0  0.54981  0.96540  0.40898  1.0000
  C   C478      1.0  0.53995  0.97127  0.42540  1.0000
  C   C479      1.0  0.46903  0.98302  0.45824  1.0000
  C   C480      1.0  0.48476  0.98890  0.47466  1.0000
  C   C481      1.0  0.51036  0.98890  0.47466  1.0000
  C   C482      1.0  0.52022  0.98302  0.45824  1.0000
  C   C483      1.0  0.43756  0.97127  0.42540  1.0000
  C   C484      1.0  0.42182  0.96540  0.40898  1.0000
  C   C485      1.0  0.43169  0.95952  0.39256  1.0000
  C   C486      1.0  0.45729  0.95952  0.39256  1.0000
  H   H157      1.0  0.49668  0.95512  0.38025  1.0000
  O   O157      1.0  0.54295  0.95424  0.37779  1.0000
  O   O158      1.0  0.57285  0.96540  0.40898  1.0000
  H   H158      1.0  0.55175  0.97568  0.43772  1.0000
  H   H159      1.0  0.44983  0.98302  0.45824  1.0000
  O   O159      1.0  0.47588  0.99419  0.48944  1.0000
  O   O160      1.0  0.52452  0.99419  0.48944  1.0000
  H   H160      1.0  0.53942  0.98302  0.45824  1.0000
  H   H161      1.0  0.43016  0.97568  0.43772  1.0000
  O   O161      1.0  0.39879  0.96540  0.40898  1.0000
  O   O162      1.0  0.41753  0.95424  0.37779  1.0000
  H   H162      1.0  0.46468  0.95512  0.38025  1.0000
  C   C487      1.0  0.84078  0.70094  0.24007  1.0000
  C   C488      1.0  0.86638  0.70094  0.24007  1.0000
  C   C489      1.0  0.88212  0.70682  0.25649  1.0000
  C   C490      1.0  0.87226  0.71270  0.27291  1.0000
  C   C491      1.0  0.84666  0.71270  0.27291  1.0000
  C   C492      1.0  0.83092  0.70682  0.25649  1.0000
  C   C493      1.0  0.88800  0.71858  0.28933  1.0000
  C   C494      1.0  0.91359  0.71857  0.28932  1.0000
  C   C495      1.0  0.92345  0.71269  0.27290  1.0000
  C   C496      1.0  0.90771  0.70682  0.25649  1.0000
  C   C497      1.0  0.82504  0.69507  0.22366  1.0000
  C   C498      1.0  0.83490  0.68919  0.20724  1.0000
  C   C499      1.0  0.86050  0.68919  0.20723  1.0000
  C   C500      1.0  0.87624  0.69506  0.22365  1.0000
  C   C501      1.0  0.80533  0.70682  0.25650  1.0000
  C   C502      1.0  0.79547  0.71270  0.27292  1.0000
  C   C503      1.0  0.81121  0.71858  0.28934  1.0000
  C   C504      1.0  0.83680  0.71858  0.28933  1.0000
  H   H163      1.0  0.88060  0.72298  0.30164  1.0000
  O   O163      1.0  0.92776  0.72386  0.30410  1.0000
  O   O164      1.0  0.94649  0.71269  0.27290  1.0000
  H   H164      1.0  0.91511  0.70241  0.24417  1.0000
  H   H165      1.0  0.80585  0.69507  0.22366  1.0000
  O   O165      1.0  0.82074  0.68390  0.19246  1.0000
  O   O166      1.0  0.86937  0.68390  0.19245  1.0000
  H   H166      1.0  0.89543  0.69506  0.22365  1.0000
  H   H167      1.0  0.79353  0.70242  0.24418  1.0000
  O   O167      1.0  0.77243  0.71270  0.27292  1.0000
  O   O168      1.0  0.80234  0.72387  0.30411  1.0000
  H   H168      1.0  0.84861  0.72299  0.30165  1.0000
  C   C505      1.0  0.29902  0.13942  0.27296  1.0000
  C   C506      1.0  0.30489  0.12955  0.25654  1.0000
  C   C507      1.0  0.31076  0.14528  0.24012  1.0000
  C   C508      1.0  0.31076  0.17088  0.24012  1.0000
  C   C509      1.0  0.30489  0.18075  0.25654  1.0000
  C   C510      1.0  0.29902  0.16502  0.27296  1.0000
  C   C511      1.0  0.31662  0.18661  0.22370  1.0000
  C   C512      1.0  0.32249  0.17674  0.20727  1.0000
  C   C513      1.0  0.32249  0.15115  0.20727  1.0000
  C   C514      1.0  0.31662  0.13542  0.22370  1.0000
  C   C515      1.0  0.29315  0.12369  0.28938  1.0000
  C   C516      1.0  0.29315  0.09809  0.28938  1.0000
  C   C517      1.0  0.29902  0.08823  0.27296  1.0000
  C   C518      1.0  0.30489  0.10396  0.25654  1.0000
  C   C519      1.0  0.29315  0.17488  0.28938  1.0000
  C   C520      1.0  0.29315  0.20048  0.28938  1.0000
  C   C521      1.0  0.29902  0.21621  0.27296  1.0000
  C   C522      1.0  0.30489  0.20634  0.25654  1.0000
  H   H169      1.0  0.31662  0.20581  0.22370  1.0000
  O   O169      1.0  0.32777  0.19090  0.19250  1.0000
  O   O170      1.0  0.32777  0.14227  0.19250  1.0000
  H   H170      1.0  0.31662  0.11622  0.22370  1.0000
  H   H171      1.0  0.28875  0.13109  0.30169  1.0000
  O   O171      1.0  0.28787  0.08394  0.30416  1.0000
  O   O172      1.0  0.29902  0.06519  0.27296  1.0000
  H   H172      1.0  0.30929  0.09656  0.24422  1.0000
  H   H173      1.0  0.28875  0.16309  0.30169  1.0000
  O   O173      1.0  0.28787  0.20936  0.30416  1.0000
  O   O174      1.0  0.29902  0.23925  0.27296  1.0000
  H   H174      1.0  0.30929  0.21814  0.24422  1.0000
  C   C523      1.0  0.87228  0.16498  0.27293  1.0000
  C   C524      1.0  0.88214  0.18071  0.25651  1.0000
  C   C525      1.0  0.86640  0.17085  0.24009  1.0000
  C   C526      1.0  0.84080  0.14525  0.24009  1.0000
  C   C527      1.0  0.83094  0.12952  0.25651  1.0000
  C   C528      1.0  0.84669  0.13938  0.27293  1.0000
  C   C529      1.0  0.82506  0.13539  0.22368  1.0000
  C   C530      1.0  0.83491  0.15112  0.20726  1.0000
  C   C531      1.0  0.86051  0.17672  0.20725  1.0000
  C   C532      1.0  0.87625  0.18658  0.22367  1.0000
  C   C533      1.0  0.88803  0.17484  0.28934  1.0000
  C   C534      1.0  0.91363  0.20044  0.28934  1.0000
  C   C535      1.0  0.92348  0.21618  0.27292  1.0000
  C   C536      1.0  0.90774  0.20631  0.25650  1.0000
  C   C537      1.0  0.83683  0.12365  0.28935  1.0000
  C   C538      1.0  0.81123  0.09805  0.28935  1.0000
  C   C539      1.0  0.79549  0.08818  0.27294  1.0000
  C   C540      1.0  0.80535  0.10392  0.25652  1.0000
  H   H175      1.0  0.80586  0.11619  0.22368  1.0000
  O   O175      1.0  0.82074  0.14224  0.19248  1.0000
  O   O176      1.0  0.86938  0.19088  0.19248  1.0000
  H   H176      1.0  0.89545  0.20578  0.22367  1.0000
  H   H177      1.0  0.88064  0.16304  0.30166  1.0000
  O   O177      1.0  0.92779  0.20932  0.30411  1.0000
  O   O178      1.0  0.94652  0.23922  0.27291  1.0000
  H   H178      1.0  0.91513  0.21811  0.24419  1.0000
  H   H179      1.0  0.84864  0.13104  0.30166  1.0000
  O   O179      1.0  0.80237  0.08389  0.30413  1.0000
  O   O180      1.0  0.77245  0.06514  0.27294  1.0000
  H   H180      1.0  0.79354  0.09652  0.24421  1.0000
  C   C541      1.0  0.71296  0.84641  0.74230  1.0000
  C   C542      1.0  0.70708  0.83067  0.75872  1.0000
  C   C543      1.0  0.70120  0.84053  0.77514  1.0000
  C   C544      1.0  0.70120  0.86612  0.77514  1.0000
  C   C545      1.0  0.70708  0.88186  0.75873  1.0000
  C   C546      1.0  0.71295  0.87201  0.74231  1.0000
  C   C547      1.0  0.69532  0.87598  0.79156  1.0000
  C   C548      1.0  0.68944  0.86024  0.80798  1.0000
  C   C549      1.0  0.68944  0.83464  0.80798  1.0000
  C   C550      1.0  0.69532  0.82479  0.79156  1.0000
  C   C551      1.0  0.71884  0.83655  0.72588  1.0000
  C   C552      1.0  0.71884  0.81096  0.72588  1.0000
  C   C553      1.0  0.71296  0.79522  0.74229  1.0000
  C   C554      1.0  0.70708  0.80507  0.75872  1.0000
  C   C555      1.0  0.71883  0.88775  0.72589  1.0000
  C   C556      1.0  0.71883  0.91334  0.72589  1.0000
  C   C557      1.0  0.71295  0.92320  0.74231  1.0000
  C   C558      1.0  0.70707  0.90746  0.75873  1.0000
  H   H181      1.0  0.69532  0.89518  0.79157  1.0000
  O   O181      1.0  0.68415  0.86911  0.82276  1.0000
  O   O182      1.0  0.68415  0.82048  0.82275  1.0000
  H   H182      1.0  0.69532  0.80559  0.79155  1.0000
  H   H183      1.0  0.72324  0.84836  0.71357  1.0000
  O   O183      1.0  0.72413  0.80209  0.71110  1.0000
  O   O184      1.0  0.71296  0.77218  0.74229  1.0000
  H   H184      1.0  0.70267  0.79327  0.77103  1.0000
  H   H185      1.0  0.72324  0.88035  0.71357  1.0000
  O   O185      1.0  0.72412  0.92751  0.71112  1.0000
  O   O186      1.0  0.71295  0.94623  0.74232  1.0000
  H   H186      1.0  0.70266  0.91485  0.77105  1.0000
  C   C559      1.0  0.16525  0.87203  0.74231  1.0000
  C   C560      1.0  0.18098  0.88188  0.75873  1.0000
  C   C561      1.0  0.17112  0.86614  0.77515  1.0000
  C   C562      1.0  0.14552  0.84054  0.77514  1.0000
  C   C563      1.0  0.12979  0.83068  0.75872  1.0000
  C   C564      1.0  0.13965  0.84643  0.74231  1.0000
  C   C565      1.0  0.13566  0.82479  0.79156  1.0000
  C   C566      1.0  0.15139  0.83465  0.80798  1.0000
  C   C567      1.0  0.17699  0.86025  0.80798  1.0000
  C   C568      1.0  0.18686  0.87599  0.79157  1.0000
  C   C569      1.0  0.17511  0.88777  0.72590  1.0000
  C   C570      1.0  0.20071  0.91337  0.72590  1.0000
  C   C571      1.0  0.21645  0.92322  0.74232  1.0000
  C   C572      1.0  0.20658  0.90748  0.75874  1.0000
  C   C573      1.0  0.12392  0.83657  0.72589  1.0000
  C   C574      1.0  0.09832  0.81098  0.72588  1.0000
  C   C575      1.0  0.08845  0.79523  0.74230  1.0000
  C   C576      1.0  0.10419  0.80509  0.75872  1.0000
  H   H187      1.0  0.11646  0.80559  0.79156  1.0000
  O   O187      1.0  0.14252  0.82048  0.82275  1.0000
  O   O188      1.0  0.19115  0.86911  0.82276  1.0000
  H   H188      1.0  0.20605  0.89519  0.79157  1.0000
  H   H189      1.0  0.16331  0.88038  0.71358  1.0000
  O   O189      1.0  0.20959  0.92754  0.71113  1.0000
  O   O190      1.0  0.23948  0.94626  0.74232  1.0000
  H   H190      1.0  0.21838  0.91487  0.77105  1.0000
  H   H191      1.0  0.13131  0.84838  0.71358  1.0000
  O   O191      1.0  0.08416  0.80211  0.71111  1.0000
  O   O192      1.0  0.06542  0.77219  0.74230  1.0000
  H   H192      1.0  0.09679  0.79328  0.77103  1.0000
  C   C577      1.0  0.14557  0.31053  0.77511  1.0000
  C   C578      1.0  0.17116  0.31053  0.77511  1.0000
  C   C579      1.0  0.18103  0.30466  0.75869  1.0000
  C   C580      1.0  0.16530  0.29879  0.74227  1.0000
  C   C581      1.0  0.13970  0.29879  0.74227  1.0000
  C   C582      1.0  0.12984  0.30466  0.75869  1.0000
  C   C583      1.0  0.17517  0.29293  0.72585  1.0000
  C   C584      1.0  0.20077  0.29293  0.72585  1.0000
  C   C585      1.0  0.21649  0.29879  0.74227  1.0000
  C   C586      1.0  0.20663  0.30466  0.75869  1.0000
  C   C587      1.0  0.13570  0.31639  0.79153  1.0000
  C   C588      1.0  0.15143  0.32226  0.80795  1.0000
  C   C589      1.0  0.17703  0.32226  0.80795  1.0000
  C   C590      1.0  0.18689  0.31640  0.79153  1.0000
  C   C591      1.0  0.10424  0.30466  0.75869  1.0000
  C   C592      1.0  0.08851  0.29879  0.74227  1.0000
  C   C593      1.0  0.09838  0.29292  0.72585  1.0000
  C   C594      1.0  0.12397  0.29292  0.72585  1.0000
  H   H193      1.0  0.16337  0.28852  0.71353  1.0000
  O   O193      1.0  0.20965  0.28764  0.71107  1.0000
  O   O194      1.0  0.23953  0.29879  0.74227  1.0000
  H   H194      1.0  0.21842  0.30906  0.77101  1.0000
  H   H195      1.0  0.11650  0.31639  0.79153  1.0000
  O   O195      1.0  0.14255  0.32754  0.82273  1.0000
  O   O196      1.0  0.19118  0.32754  0.82273  1.0000
  H   H196      1.0  0.20609  0.31640  0.79153  1.0000
  H   H197      1.0  0.09684  0.30906  0.77100  1.0000
  O   O197      1.0  0.06547  0.29879  0.74227  1.0000
  O   O198      1.0  0.08422  0.28764  0.71107  1.0000
  H   H198      1.0  0.13137  0.28852  0.71353  1.0000
  C   C595      1.0  0.50745  0.03427  0.57345  1.0000
  C   C596      1.0  0.53305  0.03427  0.57345  1.0000
  C   C597      1.0  0.54878  0.04014  0.58987  1.0000
  C   C598      1.0  0.53892  0.04602  0.60629  1.0000
  C   C599      1.0  0.51332  0.04602  0.60629  1.0000
  C   C600      1.0  0.49759  0.04015  0.58987  1.0000
  C   C601      1.0  0.55465  0.05189  0.62271  1.0000
  C   C602      1.0  0.58025  0.05189  0.62271  1.0000
  C   C603      1.0  0.59011  0.04602  0.60629  1.0000
  C   C604      1.0  0.57438  0.04014  0.58987  1.0000
  C   C605      1.0  0.49171  0.02839  0.55703  1.0000
  C   C606      1.0  0.50158  0.02252  0.54061  1.0000
  C   C607      1.0  0.52717  0.02252  0.54061  1.0000
  C   C608      1.0  0.54291  0.02839  0.55703  1.0000
  C   C609      1.0  0.47199  0.04015  0.58987  1.0000
  C   C610      1.0  0.46213  0.04602  0.60629  1.0000
  C   C611      1.0  0.47786  0.05190  0.62271  1.0000
  C   C612      1.0  0.50346  0.05190  0.62271  1.0000
  H   H199      1.0  0.54726  0.05630  0.63503  1.0000
  O   O199      1.0  0.59441  0.05718  0.63749  1.0000
  O   O200      1.0  0.61315  0.04601  0.60629  1.0000
  H   H200      1.0  0.58177  0.03573  0.57756  1.0000
  H   H201      1.0  0.47252  0.02840  0.55704  1.0000
  O   O201      1.0  0.48741  0.01723  0.52584  1.0000
  O   O202      1.0  0.53605  0.01723  0.52584  1.0000
  H   H202      1.0  0.56210  0.02839  0.55703  1.0000
  H   H203      1.0  0.46019  0.03574  0.57756  1.0000
  O   O203      1.0  0.43909  0.04602  0.60630  1.0000
  O   O204      1.0  0.46899  0.05719  0.63749  1.0000
  H   H204      1.0  0.51526  0.05630  0.63503  1.0000
  C   C613      1.0  0.96566  0.47276  0.60625  1.0000
  C   C614      1.0  0.97153  0.46290  0.58983  1.0000
  C   C615      1.0  0.97741  0.47863  0.57341  1.0000
  C   C616      1.0  0.97741  0.50423  0.57341  1.0000
  C   C617      1.0  0.97153  0.51409  0.58983  1.0000
  C   C618      1.0  0.96566  0.49836  0.60625  1.0000
  C   C619      1.0  0.98328  0.51996  0.55699  1.0000
  C   C620      1.0  0.98915  0.51010  0.54057  1.0000
  C   C621      1.0  0.98915  0.48450  0.54057  1.0000
  C   C622      1.0  0.98328  0.46877  0.55699  1.0000
  C   C623      1.0  0.95979  0.45703  0.62267  1.0000
  C   C624      1.0  0.95979  0.43143  0.62267  1.0000
  C   C625      1.0  0.96566  0.42157  0.60625  1.0000
  C   C626      1.0  0.97153  0.43730  0.58983  1.0000
  C   C627      1.0  0.95979  0.50822  0.62267  1.0000
  C   C628      1.0  0.95979  0.53382  0.62267  1.0000
  C   C629      1.0  0.96566  0.54955  0.60625  1.0000
  C   C630      1.0  0.97153  0.53969  0.58983  1.0000
  H   H205      1.0  0.98328  0.53916  0.55699  1.0000
  O   O205      1.0  0.99444  0.52426  0.52579  1.0000
  O   O206      1.0  0.99444  0.47563  0.52579  1.0000
  H   H206      1.0  0.98328  0.44957  0.55699  1.0000
  H   H207      1.0  0.95538  0.46443  0.63499  1.0000
  O   O207      1.0  0.95450  0.41727  0.63745  1.0000
  O   O208      1.0  0.96566  0.39853  0.60625  1.0000
  H   H208      1.0  0.97594  0.42990  0.57752  1.0000
  H   H209      1.0  0.95538  0.49642  0.63499  1.0000
  O   O209      1.0  0.95450  0.54270  0.63745  1.0000
  O   O210      1.0  0.96566  0.57259  0.60625  1.0000
  H   H210      1.0  0.97594  0.55149  0.57752  1.0000
  C   C631      1.0  0.53895  0.49834  0.60625  1.0000
  C   C632      1.0  0.54881  0.51408  0.58983  1.0000
  C   C633      1.0  0.53307  0.50421  0.57341  1.0000
  C   C634      1.0  0.50748  0.47862  0.57341  1.0000
  C   C635      1.0  0.49761  0.46288  0.58983  1.0000
  C   C636      1.0  0.51335  0.47274  0.60625  1.0000
  C   C637      1.0  0.49174  0.46875  0.55700  1.0000
  C   C638      1.0  0.50160  0.48449  0.54058  1.0000
  C   C639      1.0  0.52720  0.51009  0.54058  1.0000
  C   C640      1.0  0.54293  0.51995  0.55699  1.0000
  C   C641      1.0  0.55469  0.50820  0.62267  1.0000
  C   C642      1.0  0.58029  0.53380  0.62267  1.0000
  C   C643      1.0  0.59015  0.54954  0.60625  1.0000
  C   C644      1.0  0.57441  0.53967  0.58983  1.0000
  C   C645      1.0  0.50349  0.45701  0.62267  1.0000
  C   C646      1.0  0.47789  0.43141  0.62267  1.0000
  C   C647      1.0  0.46216  0.42155  0.60625  1.0000
  C   C648      1.0  0.47202  0.43728  0.58983  1.0000
  H   H211      1.0  0.47254  0.44956  0.55700  1.0000
  O   O211      1.0  0.48743  0.47562  0.52580  1.0000
  O   O212      1.0  0.53607  0.52425  0.52580  1.0000
  H   H212      1.0  0.56213  0.53915  0.55699  1.0000
  H   H213      1.0  0.54729  0.49640  0.63498  1.0000
  O   O213      1.0  0.59445  0.54268  0.63744  1.0000
  O   O214      1.0  0.61319  0.57257  0.60625  1.0000
  H   H214      1.0  0.58181  0.55148  0.57752  1.0000
  H   H215      1.0  0.51530  0.46440  0.63498  1.0000
  O   O215      1.0  0.46902  0.41724  0.63745  1.0000
  O   O216      1.0  0.43912  0.39851  0.60625  1.0000
  H   H216      1.0  0.46021  0.42989  0.57752  1.0000
  Cu  Cu1       1.0  0.33926  0.17233  0.17429  1.0000
  Cu  Cu2       1.0  0.83927  0.17233  0.17429  1.0000
  Cu  Cu3       1.0  0.83928  0.67235  0.17426  1.0000
  Cu  Cu4       1.0  0.17261  0.33902  0.84094  1.0000
  Cu  Cu5       1.0  0.67261  0.83901  0.84096  1.0000
  Cu  Cu6       1.0  0.17261  0.83900  0.84094  1.0000
  Cu  Cu7       1.0  0.00595  0.50570  0.50759  1.0000
  Cu  Cu8       1.0  0.50598  0.50571  0.50761  1.0000
  Cu  Cu9       1.0  0.50597  0.00571  0.50764  1.0000
  Cu  Cu10      1.0  0.50588  0.00560  0.00765  1.0000
  Cu  Cu11      1.0  0.00588  0.50561  0.00759  1.0000
  Cu  Cu12      1.0  0.50590  0.50562  0.00760  1.0000
  Cu  Cu13      1.0  0.17264  0.33904  0.34094  1.0000
  Cu  Cu14      1.0  0.67265  0.83904  0.34097  1.0000
  Cu  Cu15      1.0  0.17263  0.83903  0.34094  1.0000
  Cu  Cu16      1.0  0.83931  0.67240  0.67426  1.0000
  Cu  Cu17      1.0  0.33931  0.17240  0.67430  1.0000
  Cu  Cu18      1.0  0.83930  0.17238  0.67429  1.0000
  Zn  Zn1       1.0  0.29279  0.91277  0.96512  1.0000
  Zn  Zn2       1.0  0.09872  0.38531  0.96512  1.0000
  Zn  Zn3       1.0  0.62620  0.71876  0.96511  1.0000
  Zn  Zn4       1.0  0.91303  0.29251  0.05012  1.0000
  Zn  Zn5       1.0  0.71904  0.62593  0.05009  1.0000
  Zn  Zn6       1.0  0.38558  0.09845  0.05011  1.0000
  Zn  Zn7       1.0  0.71899  0.09846  0.05015  1.0000
  Zn  Zn8       1.0  0.91305  0.62592  0.05008  1.0000
  Zn  Zn9       1.0  0.38558  0.29249  0.05010  1.0000
  Zn  Zn10      1.0  0.09875  0.71873  0.96509  1.0000
  Zn  Zn11      1.0  0.29276  0.38531  0.96513  1.0000
  Zn  Zn12      1.0  0.62618  0.91277  0.96516  1.0000
  Zn  Zn13      1.0  0.95954  0.24618  0.29843  1.0000
  Zn  Zn14      1.0  0.76547  0.71876  0.29844  1.0000
  Zn  Zn15      1.0  0.29295  0.05217  0.29848  1.0000
  Zn  Zn16      1.0  0.57978  0.62592  0.38344  1.0000
  Zn  Zn17      1.0  0.38576  0.95933  0.38346  1.0000
  Zn  Zn18      1.0  0.05234  0.43188  0.38341  1.0000
  Zn  Zn19      1.0  0.38575  0.43188  0.38345  1.0000
  Zn  Zn20      1.0  0.57981  0.95934  0.38347  1.0000
  Zn  Zn21      1.0  0.05232  0.62589  0.38341  1.0000
  Zn  Zn22      1.0  0.76550  0.05215  0.29847  1.0000
  Zn  Zn23      1.0  0.95951  0.71875  0.29842  1.0000
  Zn  Zn24      1.0  0.29294  0.24620  0.29848  1.0000
  Zn  Zn25      1.0  0.62620  0.57954  0.63177  1.0000
  Zn  Zn26      1.0  0.43215  0.05210  0.63182  1.0000
  Zn  Zn27      1.0  0.95960  0.38551  0.63177  1.0000
  Zn  Zn28      1.0  0.24645  0.95928  0.71681  1.0000
  Zn  Zn29      1.0  0.05245  0.29271  0.71675  1.0000
  Zn  Zn30      1.0  0.71902  0.76523  0.71677  1.0000
  Zn  Zn31      1.0  0.05242  0.76524  0.71677  1.0000
  Zn  Zn32      1.0  0.24648  0.29271  0.71675  1.0000
  Zn  Zn33      1.0  0.71901  0.95926  0.71680  1.0000
  Zn  Zn34      1.0  0.43216  0.38550  0.63177  1.0000
  Zn  Zn35      1.0  0.62616  0.05208  0.63182  1.0000
  Zn  Zn36      1.0  0.95960  0.57955  0.63177  1.0000
