data_image0
_chemical_formula_structural       C26H7O2H2O2HC4HO2HC26H7O2H2O2HC4HO2HC26H7O2H2O2HC4HO2HC26H7O2H2O2HC4HO2HC26H7O2H2O2HC4HO2HC26H7O2H2O2HC4HO2HC26H7O2H2O2HC4HO2HC26H7O2H2O2HC4HO2HC26H7O2H2O2HC4HO2HC26H7O2H2O2HC4HO2HC26H7O2H2O2HC4HO2HC26H7O2H2O2HC4HO2HC26H7O2H2O2HC4HO2HC26H7O2H2O2HC4HO2HC26H7O2H2O2HC4HO2HC26H7O2H2O2HC4HO2HC26H7O2H2O2HC4HO2HC26H7O2H2O2HC4HO2HC26H7O2H2O2HC4HO2HC26H7O2H2O2HC4HO2HC26H7O2H2O2HC4HO2HC26H7O2H2O2HC4HO2HC26H7O2H2O2HC4HO2HC26H7O2H2O2HC4HO2HC26H7O2H2O2HC4HO2HC26H7O2H2O2HC4HO2HC26H7O2H2O2HC4HO2HC26H7O2H2O2HC4HO2HC26H7O2H2O2HC4HO2HC26H7O2H2O2HC4HO2HC26H7O2H2O2HC4HO2HC26H7O2H2O2HC4HO2HC26H7O2H2O2HC4HO2HC26H7O2H2O2HC4HO2HC26H7O2H2O2HC4HO2HC26H7O2H2O2HC4HO2HCu18Zn36
_chemical_formula_sum              "C1080 H432 O216 Cu18 Zn36"
_cell_length_a       83.6063
_cell_length_b       83.6047
_cell_length_c       109.862
_cell_angle_alpha    90.0177
_cell_angle_beta     89.9846
_cell_angle_gamma    120.012

_space_group_name_H-M_alt    "P 1"
_space_group_IT_number       1

loop_
  _space_group_symop_operation_xyz
  'x, y, z'

loop_
  _atom_site_type_symbol
  _atom_site_label
  _atom_site_symmetry_multiplicity
  _atom_site_fract_x
  _atom_site_fract_y
  _atom_site_fract_z
  _atom_site_occupancy
  C   C1        1.0  0.38230  0.01444  0.01159  1.0000
  C   C2        1.0  0.40261  0.02317  0.01560  1.0000
  C   C3        1.0  0.41420  0.01444  0.01159  1.0000
  C   C4        1.0  0.40548  0.99699  0.00358  1.0000
  C   C5        1.0  0.38516  0.98826  0.99990  1.0000
  C   C6        1.0  0.37357  0.99699  0.00357  1.0000
  C   C7        1.0  0.41707  0.98827  0.99990  1.0000
  C   C8        1.0  0.43738  0.99699  0.00358  1.0000
  C   C9        1.0  0.44611  0.01445  0.01159  1.0000
  C   C10       1.0  0.43452  0.02318  0.01560  1.0000
  C   C11       1.0  0.37071  0.02317  0.01560  1.0000
  C   C12       1.0  0.37943  0.04062  0.02361  1.0000
  C   C13       1.0  0.39975  0.04935  0.02762  1.0000
  C   C14       1.0  0.41134  0.04063  0.02361  1.0000
  C   C15       1.0  0.35325  0.98825  0.99990  1.0000
  C   C16       1.0  0.34454  0.97080  0.99155  1.0000
  C   C17       1.0  0.35613  0.96208  0.98755  1.0000
  C   C18       1.0  0.37644  0.97080  0.99155  1.0000
  C   C19       1.0  0.34740  0.94462  0.97953  1.0000
  C   C20       1.0  0.32708  0.93589  0.97552  1.0000
  C   C21       1.0  0.31549  0.94461  0.97953  1.0000
  C   C22       1.0  0.32422  0.96207  0.98754  1.0000
  C   C23       1.0  0.46643  0.02318  0.01560  1.0000
  C   C24       1.0  0.47802  0.01446  0.01160  1.0000
  C   C25       1.0  0.46929  0.99700  0.00358  1.0000
  C   C26       1.0  0.44897  0.98827  0.99990  1.0000
  H   H1        1.0  0.41061  0.97534  0.99364  1.0000
  H   H2        1.0  0.44097  0.03609  0.02153  1.0000
  H   H3        1.0  0.35566  0.01670  0.01263  1.0000
  H   H4        1.0  0.42637  0.04709  0.02658  1.0000
  H   H5        1.0  0.34467  0.99471  0.00253  1.0000
  H   H6        1.0  0.38502  0.96434  0.98859  1.0000
  H   H7        1.0  0.35598  0.93816  0.97657  1.0000
  O   O1        1.0  0.31859  0.91889  0.96772  1.0000
  O   O2        1.0  0.29570  0.93611  0.97562  1.0000
  H   H8        1.0  0.31564  0.96853  0.99051  1.0000
  H   H9        1.0  0.47288  0.03610  0.02153  1.0000
  O   O3        1.0  0.49781  0.02296  0.01550  1.0000
  O   O4        1.0  0.48058  0.98850  0.99990  1.0000
  H   H10       1.0  0.44252  0.97535  0.99364  1.0000
  C   C27       1.0  0.40847  0.06681  0.03563  1.0000
  C   C28       1.0  0.39688  0.07553  0.03964  1.0000
  C   C29       1.0  0.37656  0.06680  0.03563  1.0000
  C   C30       1.0  0.36784  0.04934  0.02761  1.0000
  H   H11       1.0  0.42351  0.07327  0.03860  1.0000
  O   O5        1.0  0.40538  0.09253  0.04744  1.0000
  O   O6        1.0  0.36527  0.07530  0.03953  1.0000
  H   H12       1.0  0.35280  0.04288  0.02465  1.0000
  C   C31       1.0  0.99723  0.40528  0.01165  1.0000
  C   C32       1.0  0.01468  0.41400  0.00363  1.0000
  C   C33       1.0  0.02341  0.40240  0.99990  1.0000
  C   C34       1.0  0.01468  0.38210  0.00364  1.0000
  C   C35       1.0  0.99723  0.37337  0.01165  1.0000
  C   C36       1.0  0.98850  0.38496  0.01566  1.0000
  C   C37       1.0  0.02341  0.37051  0.99990  1.0000
  C   C38       1.0  0.04086  0.37922  0.99162  1.0000
  C   C39       1.0  0.04959  0.39954  0.98761  1.0000
  C   C40       1.0  0.04086  0.41113  0.99161  1.0000
  C   C41       1.0  0.98851  0.41687  0.01565  1.0000
  C   C42       1.0  0.99723  0.43718  0.01164  1.0000
  C   C43       1.0  0.01468  0.44590  0.00363  1.0000
  C   C44       1.0  0.02341  0.43431  0.99990  1.0000
  C   C45       1.0  0.97104  0.37623  0.02367  1.0000
  C   C46       1.0  0.96232  0.35593  0.02768  1.0000
  C   C47       1.0  0.97105  0.34433  0.02367  1.0000
  C   C48       1.0  0.98850  0.35305  0.01566  1.0000
  C   C49       1.0  0.96232  0.32402  0.02769  1.0000
  C   C50       1.0  0.94486  0.31529  0.03570  1.0000
  C   C51       1.0  0.93614  0.32688  0.03971  1.0000
  C   C52       1.0  0.94487  0.34720  0.03569  1.0000
  C   C53       1.0  0.06705  0.40827  0.97959  1.0000
  C   C54       1.0  0.07577  0.39668  0.97559  1.0000
  C   C55       1.0  0.06704  0.37636  0.97960  1.0000
  C   C56       1.0  0.04958  0.36763  0.98762  1.0000
  H   H13       1.0  0.01694  0.35546  0.00260  1.0000
  H   H14       1.0  0.04732  0.42617  0.98865  1.0000
  H   H15       1.0  0.97558  0.41040  0.02159  1.0000
  H   H16       1.0  0.03633  0.44077  0.99369  1.0000
  H   H17       1.0  0.96458  0.38481  0.02664  1.0000
  H   H18       1.0  0.99496  0.34447  0.01270  1.0000
  H   H19       1.0  0.96878  0.31544  0.02472  1.0000
  O   O7        1.0  0.93636  0.29550  0.03961  1.0000
  O   O8        1.0  0.91914  0.31838  0.04751  1.0000
  H   H20       1.0  0.93841  0.35578  0.03866  1.0000
  H   H21       1.0  0.07350  0.42330  0.97663  1.0000
  O   O9        1.0  0.09277  0.40518  0.96778  1.0000
  O   O10       1.0  0.07554  0.36507  0.97570  1.0000
  H   H22       1.0  0.04313  0.35260  0.99058  1.0000
  C   C57       1.0  0.02342  0.46622  0.99990  1.0000
  C   C58       1.0  0.01469  0.47781  0.00362  1.0000
  C   C59       1.0  0.99723  0.46909  0.01164  1.0000
  C   C60       1.0  0.98850  0.44877  0.01565  1.0000
  H   H23       1.0  0.03633  0.47268  0.99369  1.0000
  O   O11       1.0  0.02319  0.49760  0.99990  1.0000
  O   O12       1.0  0.98873  0.48037  0.01554  1.0000
  H   H24       1.0  0.97558  0.44231  0.02158  1.0000
  C   C61       1.0  0.59767  0.60619  0.00361  1.0000
  C   C62       1.0  0.60640  0.59747  0.01162  1.0000
  C   C63       1.0  0.62671  0.60907  0.01562  1.0000
  C   C64       1.0  0.63830  0.62938  0.01162  1.0000
  C   C65       1.0  0.62958  0.63810  0.00361  1.0000
  C   C66       1.0  0.60926  0.62651  0.99990  1.0000
  C   C67       1.0  0.65862  0.64097  0.01563  1.0000
  C   C68       1.0  0.66735  0.63225  0.02363  1.0000
  C   C69       1.0  0.65575  0.61193  0.02764  1.0000
  C   C70       1.0  0.63544  0.60034  0.02363  1.0000
  C   C71       1.0  0.57735  0.59460  0.99990  1.0000
  C   C72       1.0  0.56576  0.57429  0.00360  1.0000
  C   C73       1.0  0.57449  0.56556  0.01162  1.0000
  C   C74       1.0  0.59480  0.57715  0.01562  1.0000
  C   C75       1.0  0.60054  0.63524  0.99159  1.0000
  C   C76       1.0  0.61213  0.65555  0.98758  1.0000
  C   C77       1.0  0.63245  0.66714  0.99159  1.0000
  C   C78       1.0  0.64117  0.65842  0.99990  1.0000
  C   C79       1.0  0.64404  0.68746  0.98758  1.0000
  C   C80       1.0  0.63532  0.69619  0.97957  1.0000
  C   C81       1.0  0.61500  0.68459  0.97557  1.0000
  C   C82       1.0  0.60341  0.66427  0.97957  1.0000
  C   C83       1.0  0.66448  0.60320  0.03565  1.0000
  C   C84       1.0  0.68479  0.61480  0.03966  1.0000
  C   C85       1.0  0.69639  0.63512  0.03565  1.0000
  C   C86       1.0  0.68766  0.64385  0.02764  1.0000
  H   H25       1.0  0.66720  0.65602  0.01266  1.0000
  H   H26       1.0  0.62686  0.58530  0.02660  1.0000
  H   H27       1.0  0.57090  0.60106  0.99367  1.0000
  H   H28       1.0  0.60126  0.57070  0.02155  1.0000
  H   H29       1.0  0.58550  0.62666  0.98862  1.0000
  H   H30       1.0  0.65621  0.66701  0.00256  1.0000
  H   H31       1.0  0.65908  0.69604  0.99055  1.0000
  O   O13       1.0  0.64661  0.71598  0.97567  1.0000
  O   O14       1.0  0.60650  0.69309  0.96776  1.0000
  H   H32       1.0  0.58837  0.65569  0.97661  1.0000
  H   H33       1.0  0.65590  0.58817  0.03862  1.0000
  O   O15       1.0  0.69329  0.60630  0.04746  1.0000
  O   O16       1.0  0.71618  0.64641  0.03955  1.0000
  H   H34       1.0  0.69624  0.65888  0.02468  1.0000
  C   C87       1.0  0.56289  0.54524  0.01562  1.0000
  C   C88       1.0  0.54258  0.53364  0.01162  1.0000
  C   C89       1.0  0.53385  0.54237  0.00360  1.0000
  C   C90       1.0  0.54545  0.56269  0.99990  1.0000
  H   H35       1.0  0.56935  0.53878  0.02155  1.0000
  O   O17       1.0  0.53128  0.51386  0.01552  1.0000
  O   O18       1.0  0.51406  0.53108  0.99990  1.0000
  H   H36       1.0  0.53899  0.56915  0.99367  1.0000
  C   C91       1.0  0.60637  0.01445  0.01161  1.0000
  C   C92       1.0  0.59766  0.99700  0.00360  1.0000
  C   C93       1.0  0.60925  0.98827  0.99990  1.0000
  C   C94       1.0  0.62955  0.99700  0.00360  1.0000
  C   C95       1.0  0.63828  0.01445  0.01162  1.0000
  C   C96       1.0  0.62669  0.02318  0.01562  1.0000
  C   C97       1.0  0.64114  0.98827  0.99990  1.0000
  C   C98       1.0  0.63243  0.97082  0.99158  1.0000
  C   C99       1.0  0.61211  0.96209  0.98757  1.0000
  C   C100      1.0  0.60052  0.97082  0.99158  1.0000
  C   C101      1.0  0.59478  0.02317  0.01562  1.0000
  C   C102      1.0  0.57448  0.01445  0.01161  1.0000
  C   C103      1.0  0.56575  0.99699  0.00360  1.0000
  C   C104      1.0  0.57734  0.98827  0.99990  1.0000
  C   C105      1.0  0.63542  0.04064  0.02364  1.0000
  C   C106      1.0  0.65573  0.04936  0.02765  1.0000
  C   C107      1.0  0.66732  0.04063  0.02364  1.0000
  C   C108      1.0  0.65860  0.02319  0.01563  1.0000
  C   C109      1.0  0.68764  0.04937  0.02765  1.0000
  C   C110      1.0  0.69636  0.06682  0.03567  1.0000
  C   C111      1.0  0.68477  0.07555  0.03967  1.0000
  C   C112      1.0  0.66446  0.06682  0.03566  1.0000
  C   C113      1.0  0.60338  0.94463  0.97956  1.0000
  C   C114      1.0  0.61497  0.93591  0.97555  1.0000
  C   C115      1.0  0.63529  0.94464  0.97956  1.0000
  C   C116      1.0  0.64402  0.96210  0.98758  1.0000
  H   H37       1.0  0.65619  0.99474  0.00257  1.0000
  H   H38       1.0  0.58548  0.96436  0.98861  1.0000
  H   H39       1.0  0.60125  0.03610  0.02155  1.0000
  H   H40       1.0  0.57088  0.97535  0.99366  1.0000
  H   H41       1.0  0.62684  0.04710  0.02660  1.0000
  H   H42       1.0  0.66718  0.01673  0.01266  1.0000
  H   H43       1.0  0.69622  0.04291  0.02469  1.0000
  O   O19       1.0  0.71615  0.07533  0.03957  1.0000
  O   O20       1.0  0.69327  0.09255  0.04748  1.0000
  H   H44       1.0  0.65588  0.07328  0.03863  1.0000
  H   H45       1.0  0.58835  0.93817  0.97659  1.0000
  O   O21       1.0  0.60647  0.91891  0.96775  1.0000
  O   O22       1.0  0.64658  0.93614  0.97566  1.0000
  H   H46       1.0  0.65905  0.96856  0.99055  1.0000
  C   C117      1.0  0.54543  0.98826  0.99990  1.0000
  C   C118      1.0  0.53384  0.99699  0.00359  1.0000
  C   C119      1.0  0.54257  0.01445  0.01161  1.0000
  C   C120      1.0  0.56289  0.02318  0.01562  1.0000
  H   H47       1.0  0.53897  0.97534  0.99365  1.0000
  O   O23       1.0  0.51405  0.98849  0.99990  1.0000
  O   O24       1.0  0.53128  0.02295  0.01551  1.0000
  H   H48       1.0  0.56934  0.03610  0.02155  1.0000
  C   C121      1.0  0.99717  0.62932  0.01158  1.0000
  C   C122      1.0  0.98845  0.60901  0.01559  1.0000
  C   C123      1.0  0.99718  0.59742  0.01158  1.0000
  C   C124      1.0  0.01462  0.60614  0.00357  1.0000
  C   C125      1.0  0.02335  0.62646  0.99990  1.0000
  C   C126      1.0  0.01463  0.63805  0.00357  1.0000
  C   C127      1.0  0.02335  0.59455  0.99990  1.0000
  C   C128      1.0  0.01463  0.57424  0.00358  1.0000
  C   C129      1.0  0.99717  0.56551  0.01159  1.0000
  C   C130      1.0  0.98845  0.57710  0.01560  1.0000
  C   C131      1.0  0.98844  0.64091  0.01559  1.0000
  C   C132      1.0  0.97100  0.63219  0.02360  1.0000
  C   C133      1.0  0.96227  0.61188  0.02761  1.0000
  C   C134      1.0  0.97099  0.60028  0.02360  1.0000
  C   C135      1.0  0.02336  0.65836  0.99990  1.0000
  C   C136      1.0  0.04080  0.66708  0.99154  1.0000
  C   C137      1.0  0.04953  0.65549  0.98754  1.0000
  C   C138      1.0  0.04081  0.63518  0.99155  1.0000
  C   C139      1.0  0.06699  0.66422  0.97952  1.0000
  C   C140      1.0  0.07572  0.68454  0.97551  1.0000
  C   C141      1.0  0.06699  0.69613  0.97952  1.0000
  C   C142      1.0  0.04954  0.68740  0.98753  1.0000
  C   C143      1.0  0.98844  0.54520  0.01560  1.0000
  C   C144      1.0  0.99717  0.53361  0.01160  1.0000
  C   C145      1.0  0.01463  0.54233  0.00358  1.0000
  C   C146      1.0  0.02336  0.56265  0.99990  1.0000
  H   H49       1.0  0.03628  0.60101  0.99363  1.0000
  H   H50       1.0  0.97553  0.57065  0.02153  1.0000
  H   H51       1.0  0.99491  0.65596  0.01261  1.0000
  H   H52       1.0  0.96453  0.58525  0.02657  1.0000
  H   H53       1.0  0.01690  0.66694  0.00252  1.0000
  H   H54       1.0  0.04727  0.62660  0.98858  1.0000
  H   H55       1.0  0.07345  0.65564  0.97656  1.0000
  O   O25       1.0  0.09272  0.69303  0.96771  1.0000
  O   O26       1.0  0.07549  0.71591  0.97561  1.0000
  H   H56       1.0  0.04308  0.69598  0.99050  1.0000
  H   H57       1.0  0.97552  0.53874  0.02154  1.0000
  O   O27       1.0  0.98867  0.51382  0.01551  1.0000
  O   O28       1.0  0.02313  0.53104  0.99990  1.0000
  H   H58       1.0  0.03627  0.56911  0.99364  1.0000
  C   C147      1.0  0.94481  0.60315  0.03562  1.0000
  C   C148      1.0  0.93608  0.61474  0.03963  1.0000
  C   C149      1.0  0.94481  0.63506  0.03562  1.0000
  C   C150      1.0  0.96227  0.64378  0.02760  1.0000
  H   H59       1.0  0.93835  0.58811  0.03859  1.0000
  O   O29       1.0  0.91908  0.60624  0.04743  1.0000
  O   O30       1.0  0.93631  0.64634  0.03952  1.0000
  H   H60       1.0  0.96873  0.65882  0.02463  1.0000
  C   C151      1.0  0.37355  0.38205  0.00359  1.0000
  C   C152      1.0  0.38514  0.40236  0.99990  1.0000
  C   C153      1.0  0.40546  0.41396  0.00359  1.0000
  C   C154      1.0  0.41418  0.40524  0.01160  1.0000
  C   C155      1.0  0.40259  0.38492  0.01561  1.0000
  C   C156      1.0  0.38227  0.37333  0.01160  1.0000
  C   C157      1.0  0.43450  0.41683  0.01561  1.0000
  C   C158      1.0  0.44609  0.43714  0.01160  1.0000
  C   C159      1.0  0.43737  0.44587  0.00359  1.0000
  C   C160      1.0  0.41705  0.43428  0.99990  1.0000
  C   C161      1.0  0.35323  0.37046  0.99990  1.0000
  C   C162      1.0  0.34451  0.37918  0.99157  1.0000
  C   C163      1.0  0.35610  0.39950  0.98756  1.0000
  C   C164      1.0  0.37642  0.41109  0.99157  1.0000
  C   C165      1.0  0.37068  0.35301  0.01561  1.0000
  C   C166      1.0  0.37940  0.34429  0.02361  1.0000
  C   C167      1.0  0.39972  0.35588  0.02762  1.0000
  C   C168      1.0  0.41131  0.37619  0.02362  1.0000
  C   C169      1.0  0.40844  0.34716  0.03563  1.0000
  C   C170      1.0  0.39685  0.32683  0.03964  1.0000
  C   C171      1.0  0.37653  0.31524  0.03563  1.0000
  C   C172      1.0  0.36781  0.32397  0.02762  1.0000
  C   C173      1.0  0.44896  0.46619  0.99990  1.0000
  C   C174      1.0  0.46928  0.47778  0.00359  1.0000
  C   C175      1.0  0.47800  0.46906  0.01160  1.0000
  C   C176      1.0  0.46641  0.44874  0.01561  1.0000
  H   H61       1.0  0.44096  0.41037  0.02154  1.0000
  H   H62       1.0  0.41059  0.44073  0.99365  1.0000
  H   H63       1.0  0.34465  0.35541  0.00255  1.0000
  H   H64       1.0  0.38500  0.42613  0.98861  1.0000
  H   H65       1.0  0.35564  0.34442  0.01264  1.0000
  H   H66       1.0  0.42635  0.38477  0.02658  1.0000
  H   H67       1.0  0.42348  0.35574  0.03860  1.0000
  O   O31       1.0  0.40535  0.31834  0.04744  1.0000
  O   O32       1.0  0.36524  0.29545  0.03954  1.0000
  H   H68       1.0  0.35277  0.31539  0.02466  1.0000
  H   H69       1.0  0.44250  0.47265  0.99365  1.0000
  O   O33       1.0  0.48057  0.49757  0.99990  1.0000
  O   O34       1.0  0.49779  0.48035  0.01551  1.0000
  H   H70       1.0  0.47287  0.44228  0.02154  1.0000
  C   C177      1.0  0.34738  0.40823  0.97955  1.0000
  C   C178      1.0  0.32706  0.39663  0.97555  1.0000
  C   C179      1.0  0.31547  0.37631  0.97955  1.0000
  C   C180      1.0  0.32419  0.36758  0.98757  1.0000
  H   H71       1.0  0.35596  0.42326  0.97659  1.0000
  O   O35       1.0  0.31856  0.40513  0.96774  1.0000
  O   O36       1.0  0.29568  0.36502  0.97565  1.0000
  H   H72       1.0  0.31561  0.35255  0.99053  1.0000
  C   C181      1.0  0.04894  0.34774  0.34492  1.0000
  C   C182      1.0  0.06924  0.35646  0.34893  1.0000
  C   C183      1.0  0.08083  0.34773  0.34493  1.0000
  C   C184      1.0  0.07212  0.33029  0.33691  1.0000
  C   C185      1.0  0.05180  0.32155  0.33290  1.0000
  C   C186      1.0  0.04021  0.33028  0.33691  1.0000
  C   C187      1.0  0.08371  0.32156  0.33291  1.0000
  C   C188      1.0  0.10402  0.33028  0.33692  1.0000
  C   C189      1.0  0.11274  0.34774  0.34493  1.0000
  C   C190      1.0  0.10115  0.35647  0.34894  1.0000
  C   C191      1.0  0.03734  0.35646  0.34893  1.0000
  C   C192      1.0  0.04606  0.37391  0.35694  1.0000
  C   C193      1.0  0.06638  0.38264  0.36095  1.0000
  C   C194      1.0  0.07797  0.37392  0.35695  1.0000
  C   C195      1.0  0.01989  0.32155  0.33290  1.0000
  C   C196      1.0  0.01117  0.30410  0.32488  1.0000
  C   C197      1.0  0.02277  0.29537  0.32088  1.0000
  C   C198      1.0  0.04307  0.30410  0.32489  1.0000
  C   C199      1.0  0.01404  0.27792  0.31286  1.0000
  C   C200      1.0  0.99372  0.26919  0.30885  1.0000
  C   C201      1.0  0.98213  0.27791  0.31286  1.0000
  C   C202      1.0  0.99086  0.29537  0.32087  1.0000
  C   C203      1.0  0.13306  0.35647  0.34894  1.0000
  C   C204      1.0  0.14465  0.34775  0.34494  1.0000
  C   C205      1.0  0.13593  0.33029  0.33692  1.0000
  C   C206      1.0  0.11561  0.32156  0.33291  1.0000
  H   H73       1.0  0.07724  0.30863  0.32697  1.0000
  H   H74       1.0  0.10761  0.36938  0.35487  1.0000
  H   H75       1.0  0.02230  0.34999  0.34596  1.0000
  H   H76       1.0  0.09301  0.38038  0.35992  1.0000
  H   H77       1.0  0.01131  0.32801  0.33586  1.0000
  H   H78       1.0  0.05165  0.29764  0.32192  1.0000
  H   H79       1.0  0.02262  0.27146  0.30990  1.0000
  O   O37       1.0  0.98522  0.25218  0.30105  1.0000
  O   O38       1.0  0.96234  0.26941  0.30895  1.0000
  H   H80       1.0  0.98228  0.30183  0.32384  1.0000
  H   H81       1.0  0.13952  0.36939  0.35488  1.0000
  O   O39       1.0  0.16444  0.35625  0.34885  1.0000
  O   O40       1.0  0.14722  0.32179  0.33302  1.0000
  H   H82       1.0  0.10915  0.30864  0.32698  1.0000
  C   C207      1.0  0.07511  0.40010  0.36897  1.0000
  C   C208      1.0  0.06351  0.40882  0.37297  1.0000
  C   C209      1.0  0.04320  0.40009  0.36896  1.0000
  C   C210      1.0  0.03447  0.38263  0.36095  1.0000
  H   H83       1.0  0.09014  0.40656  0.37194  1.0000
  O   O41       1.0  0.07201  0.42582  0.38078  1.0000
  O   O42       1.0  0.03191  0.40859  0.37286  1.0000
  H   H84       1.0  0.01943  0.37618  0.35798  1.0000
  C   C211      1.0  0.66387  0.73857  0.34499  1.0000
  C   C212      1.0  0.68132  0.74729  0.33698  1.0000
  C   C213      1.0  0.69004  0.73569  0.33298  1.0000
  C   C214      1.0  0.68132  0.71539  0.33699  1.0000
  C   C215      1.0  0.66386  0.70666  0.34500  1.0000
  C   C216      1.0  0.65514  0.71825  0.34900  1.0000
  C   C217      1.0  0.69005  0.70380  0.33298  1.0000
  C   C218      1.0  0.70749  0.71251  0.32497  1.0000
  C   C219      1.0  0.71622  0.73283  0.32096  1.0000
  C   C220      1.0  0.70750  0.74442  0.32496  1.0000
  C   C221      1.0  0.65514  0.75016  0.34899  1.0000
  C   C222      1.0  0.66386  0.77047  0.34498  1.0000
  C   C223      1.0  0.68132  0.77919  0.33697  1.0000
  C   C224      1.0  0.69005  0.76760  0.33296  1.0000
  C   C225      1.0  0.63768  0.70953  0.35702  1.0000
  C   C226      1.0  0.62896  0.68922  0.36103  1.0000
  C   C227      1.0  0.63769  0.67763  0.35703  1.0000
  C   C228      1.0  0.65513  0.68634  0.34901  1.0000
  C   C229      1.0  0.62896  0.65731  0.36104  1.0000
  C   C230      1.0  0.61150  0.64859  0.36906  1.0000
  C   C231      1.0  0.60277  0.66018  0.37306  1.0000
  C   C232      1.0  0.61150  0.68050  0.36904  1.0000
  C   C233      1.0  0.73368  0.74155  0.31294  1.0000
  C   C234      1.0  0.74241  0.72996  0.30894  1.0000
  C   C235      1.0  0.73368  0.70964  0.31295  1.0000
  C   C236      1.0  0.71622  0.70092  0.32097  1.0000
  H   H85       1.0  0.68358  0.68875  0.33596  1.0000
  H   H86       1.0  0.71396  0.75945  0.32199  1.0000
  H   H87       1.0  0.64222  0.74370  0.35493  1.0000
  H   H88       1.0  0.70296  0.77406  0.32703  1.0000
  H   H89       1.0  0.63122  0.71811  0.35998  1.0000
  H   H90       1.0  0.66159  0.67776  0.34605  1.0000
  H   H91       1.0  0.63541  0.64873  0.35808  1.0000
  O   O43       1.0  0.60300  0.62880  0.37296  1.0000
  O   O44       1.0  0.58577  0.65168  0.38086  1.0000
  H   H92       1.0  0.60504  0.68908  0.37201  1.0000
  H   H93       1.0  0.74014  0.75659  0.30997  1.0000
  O   O45       1.0  0.75941  0.73846  0.30113  1.0000
  O   O46       1.0  0.74218  0.69835  0.30906  1.0000
  H   H94       1.0  0.70976  0.68588  0.32394  1.0000
  C   C237      1.0  0.69005  0.79951  0.33295  1.0000
  C   C238      1.0  0.68133  0.81110  0.33696  1.0000
  C   C239      1.0  0.66387  0.80238  0.34497  1.0000
  C   C240      1.0  0.65514  0.78206  0.34898  1.0000
  H   H95       1.0  0.70297  0.80596  0.32702  1.0000
  O   O47       1.0  0.68983  0.83089  0.33305  1.0000
  O   O48       1.0  0.65537  0.81367  0.34887  1.0000
  H   H96       1.0  0.64222  0.77561  0.35492  1.0000
  C   C241      1.0  0.26430  0.93948  0.33692  1.0000
  C   C242      1.0  0.27303  0.93076  0.34493  1.0000
  C   C243      1.0  0.29335  0.94236  0.34894  1.0000
  C   C244      1.0  0.30494  0.96267  0.34493  1.0000
  C   C245      1.0  0.29621  0.97139  0.33692  1.0000
  C   C246      1.0  0.27590  0.95980  0.33292  1.0000
  C   C247      1.0  0.32526  0.97426  0.34894  1.0000
  C   C248      1.0  0.33398  0.96554  0.35694  1.0000
  C   C249      1.0  0.32239  0.94522  0.36095  1.0000
  C   C250      1.0  0.30207  0.93363  0.35695  1.0000
  C   C251      1.0  0.24399  0.92789  0.33292  1.0000
  C   C252      1.0  0.23239  0.90758  0.33692  1.0000
  C   C253      1.0  0.24112  0.89885  0.34494  1.0000
  C   C254      1.0  0.26144  0.91044  0.34894  1.0000
  C   C255      1.0  0.26717  0.96853  0.32490  1.0000
  C   C256      1.0  0.27876  0.98884  0.32090  1.0000
  C   C257      1.0  0.29908  0.00010  0.32491  1.0000
  C   C258      1.0  0.30781  0.99171  0.33291  1.0000
  C   C259      1.0  0.31067  0.02075  0.32090  1.0000
  C   C260      1.0  0.30195  0.02948  0.31289  1.0000
  C   C261      1.0  0.28163  0.01788  0.30888  1.0000
  C   C262      1.0  0.27004  0.99756  0.31289  1.0000
  C   C263      1.0  0.33112  0.93650  0.36896  1.0000
  C   C264      1.0  0.35143  0.94809  0.37297  1.0000
  C   C265      1.0  0.36303  0.96841  0.36896  1.0000
  C   C266      1.0  0.35430  0.97714  0.36095  1.0000
  H   H97       1.0  0.33384  0.98931  0.34597  1.0000
  H   H98       1.0  0.29349  0.91859  0.35991  1.0000
  H   H99       1.0  0.23753  0.93435  0.32699  1.0000
  H   H100      1.0  0.26790  0.90399  0.35487  1.0000
  H   H101      1.0  0.25213  0.95994  0.32194  1.0000
  H   H102      1.0  0.32285  0.00010  0.33588  1.0000
  H   H103      1.0  0.32571  0.02933  0.32386  1.0000
  O   O49       1.0  0.31324  0.04926  0.30898  1.0000
  O   O50       1.0  0.27313  0.02638  0.30108  1.0000
  H   H104      1.0  0.25500  0.98898  0.30992  1.0000
  H   H105      1.0  0.32253  0.92146  0.37193  1.0000
  O   O51       1.0  0.35993  0.93959  0.38077  1.0000
  O   O52       1.0  0.38282  0.97970  0.37286  1.0000
  H   H106      1.0  0.36288  0.99217  0.35798  1.0000
  C   C267      1.0  0.22953  0.87853  0.34894  1.0000
  C   C268      1.0  0.20921  0.86694  0.34494  1.0000
  C   C269      1.0  0.20048  0.87566  0.33693  1.0000
  C   C270      1.0  0.21208  0.89598  0.33292  1.0000
  H   H107      1.0  0.23599  0.87207  0.35487  1.0000
  O   O53       1.0  0.19792  0.84715  0.34884  1.0000
  O   O54       1.0  0.18069  0.86437  0.33303  1.0000
  H   H108      1.0  0.20562  0.90244  0.32699  1.0000
  C   C271      1.0  0.27299  0.34773  0.34497  1.0000
  C   C272      1.0  0.26428  0.33028  0.33696  1.0000
  C   C273      1.0  0.27587  0.32156  0.33295  1.0000
  C   C274      1.0  0.29618  0.33028  0.33696  1.0000
  C   C275      1.0  0.30490  0.34774  0.34498  1.0000
  C   C276      1.0  0.29331  0.35646  0.34898  1.0000
  C   C277      1.0  0.30777  0.32155  0.33295  1.0000
  C   C278      1.0  0.29905  0.30411  0.32494  1.0000
  C   C279      1.0  0.27873  0.29538  0.32093  1.0000
  C   C280      1.0  0.26714  0.30410  0.32493  1.0000
  C   C281      1.0  0.26140  0.35645  0.34897  1.0000
  C   C282      1.0  0.24109  0.34773  0.34497  1.0000
  C   C283      1.0  0.23237  0.33027  0.33695  1.0000
  C   C284      1.0  0.24396  0.32155  0.33295  1.0000
  C   C285      1.0  0.30204  0.37392  0.35700  1.0000
  C   C286      1.0  0.32235  0.38264  0.36100  1.0000
  C   C287      1.0  0.33394  0.37391  0.35700  1.0000
  C   C288      1.0  0.32522  0.35647  0.34899  1.0000
  C   C289      1.0  0.35425  0.38265  0.36101  1.0000
  C   C290      1.0  0.36298  0.40010  0.36903  1.0000
  C   C291      1.0  0.35139  0.40883  0.37303  1.0000
  C   C292      1.0  0.33107  0.40010  0.36902  1.0000
  C   C293      1.0  0.27001  0.27792  0.31291  1.0000
  C   C294      1.0  0.28160  0.26919  0.30891  1.0000
  C   C295      1.0  0.30191  0.27793  0.31292  1.0000
  C   C296      1.0  0.31064  0.29538  0.32093  1.0000
  H   H109      1.0  0.32281  0.32802  0.33592  1.0000
  H   H110      1.0  0.25211  0.29764  0.32197  1.0000
  H   H111      1.0  0.26787  0.36938  0.35491  1.0000
  H   H112      1.0  0.23750  0.30863  0.32701  1.0000
  H   H113      1.0  0.29346  0.38038  0.35996  1.0000
  H   H114      1.0  0.33380  0.35001  0.34602  1.0000
  H   H115      1.0  0.36284  0.37619  0.35805  1.0000
  O   O55       1.0  0.38277  0.40861  0.37293  1.0000
  O   O56       1.0  0.35989  0.42583  0.38084  1.0000
  H   H116      1.0  0.32249  0.40656  0.37199  1.0000
  H   H117      1.0  0.25497  0.27146  0.30994  1.0000
  O   O57       1.0  0.27310  0.25219  0.30110  1.0000
  O   O58       1.0  0.31320  0.26943  0.30902  1.0000
  H   H118      1.0  0.32568  0.30184  0.32390  1.0000
  C   C297      1.0  0.21205  0.32154  0.33294  1.0000
  C   C298      1.0  0.20046  0.33027  0.33695  1.0000
  C   C299      1.0  0.20919  0.34772  0.34496  1.0000
  C   C300      1.0  0.22950  0.35646  0.34897  1.0000
  H   H119      1.0  0.20560  0.30863  0.32701  1.0000
  O   O59       1.0  0.18067  0.32177  0.33304  1.0000
  O   O60       1.0  0.19790  0.35622  0.34886  1.0000
  H   H120      1.0  0.23596  0.36937  0.35491  1.0000
  C   C301      1.0  0.66380  0.96261  0.34488  1.0000
  C   C302      1.0  0.65508  0.94230  0.34889  1.0000
  C   C303      1.0  0.66381  0.93071  0.34489  1.0000
  C   C304      1.0  0.68125  0.93943  0.33687  1.0000
  C   C305      1.0  0.68999  0.95975  0.33286  1.0000
  C   C306      1.0  0.68126  0.97134  0.33686  1.0000
  C   C307      1.0  0.68998  0.92784  0.33287  1.0000
  C   C308      1.0  0.68126  0.90753  0.33688  1.0000
  C   C309      1.0  0.66380  0.89880  0.34490  1.0000
  C   C310      1.0  0.65508  0.91040  0.34890  1.0000
  C   C311      1.0  0.65508  0.97420  0.34888  1.0000
  C   C312      1.0  0.63763  0.96549  0.35689  1.0000
  C   C313      1.0  0.62890  0.94517  0.36091  1.0000
  C   C314      1.0  0.63762  0.93358  0.35690  1.0000
  C   C315      1.0  0.68999  0.99165  0.33285  1.0000
  C   C316      1.0  0.70744  0.00010  0.32484  1.0000
  C   C317      1.0  0.71616  0.98878  0.32084  1.0000
  C   C318      1.0  0.70744  0.96847  0.32485  1.0000
  C   C319      1.0  0.73362  0.99751  0.31282  1.0000
  C   C320      1.0  0.74235  0.01782  0.30881  1.0000
  C   C321      1.0  0.73363  0.02941  0.31281  1.0000
  C   C322      1.0  0.71617  0.02069  0.32083  1.0000
  C   C323      1.0  0.65507  0.87849  0.34891  1.0000
  C   C324      1.0  0.66380  0.86690  0.34491  1.0000
  C   C325      1.0  0.68126  0.87562  0.33689  1.0000
  C   C326      1.0  0.68999  0.89594  0.33288  1.0000
  H   H121      1.0  0.70291  0.93430  0.32694  1.0000
  H   H122      1.0  0.64216  0.90394  0.35483  1.0000
  H   H123      1.0  0.66154  0.98925  0.34591  1.0000
  H   H124      1.0  0.63116  0.91854  0.35987  1.0000
  H   H125      1.0  0.68353  0.00010  0.33581  1.0000
  H   H126      1.0  0.71390  0.95989  0.32188  1.0000
  H   H127      1.0  0.74008  0.98893  0.30986  1.0000
  O   O61       1.0  0.75935  0.02632  0.30101  1.0000
  O   O62       1.0  0.74213  0.04920  0.30891  1.0000
  H   H128      1.0  0.70971  0.02927  0.32379  1.0000
  H   H129      1.0  0.64215  0.87203  0.35484  1.0000
  O   O63       1.0  0.65530  0.84711  0.34881  1.0000
  O   O64       1.0  0.68976  0.86433  0.33299  1.0000
  H   H130      1.0  0.70291  0.90239  0.32695  1.0000
  C   C327      1.0  0.61144  0.93644  0.36892  1.0000
  C   C328      1.0  0.60271  0.94803  0.37292  1.0000
  C   C329      1.0  0.61144  0.96835  0.36891  1.0000
  C   C330      1.0  0.62890  0.97708  0.36090  1.0000
  H   H131      1.0  0.60498  0.92141  0.37189  1.0000
  O   O65       1.0  0.58571  0.93954  0.38073  1.0000
  O   O66       1.0  0.60294  0.97964  0.37281  1.0000
  H   H132      1.0  0.63536  0.99211  0.35793  1.0000
  C   C331      1.0  0.04018  0.71535  0.33694  1.0000
  C   C332      1.0  0.05177  0.73566  0.33293  1.0000
  C   C333      1.0  0.07209  0.74725  0.33694  1.0000
  C   C334      1.0  0.08081  0.73854  0.34495  1.0000
  C   C335      1.0  0.06922  0.71822  0.34895  1.0000
  C   C336      1.0  0.04890  0.70662  0.34495  1.0000
  C   C337      1.0  0.10113  0.75013  0.34895  1.0000
  C   C338      1.0  0.11272  0.77044  0.34495  1.0000
  C   C339      1.0  0.10399  0.77917  0.33694  1.0000
  C   C340      1.0  0.08368  0.76757  0.33293  1.0000
  C   C341      1.0  0.01986  0.70375  0.33293  1.0000
  C   C342      1.0  0.01113  0.71247  0.32492  1.0000
  C   C343      1.0  0.02273  0.73279  0.32092  1.0000
  C   C344      1.0  0.04304  0.74438  0.32492  1.0000
  C   C345      1.0  0.03731  0.68630  0.34896  1.0000
  C   C346      1.0  0.04604  0.67759  0.35697  1.0000
  C   C347      1.0  0.06635  0.68918  0.36097  1.0000
  C   C348      1.0  0.07795  0.70949  0.35697  1.0000
  C   C349      1.0  0.07508  0.68046  0.36898  1.0000
  C   C350      1.0  0.06349  0.66013  0.37299  1.0000
  C   C351      1.0  0.04317  0.64854  0.36899  1.0000
  C   C352      1.0  0.03445  0.65727  0.36097  1.0000
  C   C353      1.0  0.11559  0.79949  0.33293  1.0000
  C   C354      1.0  0.13590  0.81108  0.33693  1.0000
  C   C355      1.0  0.14463  0.80235  0.34494  1.0000
  C   C356      1.0  0.13304  0.78203  0.34895  1.0000
  H   H133      1.0  0.10759  0.74367  0.35489  1.0000
  H   H134      1.0  0.07722  0.77403  0.32700  1.0000
  H   H135      1.0  0.01128  0.68871  0.33590  1.0000
  H   H136      1.0  0.05162  0.75942  0.32196  1.0000
  H   H137      1.0  0.02227  0.67772  0.34599  1.0000
  H   H138      1.0  0.09299  0.71807  0.35993  1.0000
  H   H139      1.0  0.09012  0.68904  0.37195  1.0000
  O   O67       1.0  0.07199  0.65164  0.38079  1.0000
  O   O68       1.0  0.03188  0.62875  0.37289  1.0000
  H   H140      1.0  0.01941  0.64868  0.35801  1.0000
  H   H141      1.0  0.10913  0.80594  0.32700  1.0000
  O   O69       1.0  0.14719  0.83087  0.33303  1.0000
  O   O70       1.0  0.16442  0.81365  0.34885  1.0000
  H   H142      1.0  0.13950  0.77558  0.35488  1.0000
  C   C357      1.0  0.01400  0.74152  0.31290  1.0000
  C   C358      1.0  0.99368  0.72992  0.30890  1.0000
  C   C359      1.0  0.98209  0.70960  0.31291  1.0000
  C   C360      1.0  0.99082  0.70087  0.32092  1.0000
  H   H143      1.0  0.02258  0.75655  0.30994  1.0000
  O   O71       1.0  0.98518  0.73842  0.30110  1.0000
  O   O72       1.0  0.96230  0.69831  0.30901  1.0000
  H   H144      1.0  0.98224  0.68584  0.32388  1.0000
  C   C361      1.0  0.71561  0.68104  0.67827  1.0000
  C   C362      1.0  0.73592  0.68977  0.68228  1.0000
  C   C363      1.0  0.74751  0.68104  0.67827  1.0000
  C   C364      1.0  0.73879  0.66359  0.67026  1.0000
  C   C365      1.0  0.71848  0.65486  0.66625  1.0000
  C   C366      1.0  0.70688  0.66359  0.67026  1.0000
  C   C367      1.0  0.75039  0.65487  0.66626  1.0000
  C   C368      1.0  0.77069  0.66359  0.67027  1.0000
  C   C369      1.0  0.77942  0.68105  0.67828  1.0000
  C   C370      1.0  0.76783  0.68978  0.68228  1.0000
  C   C371      1.0  0.70402  0.68977  0.68227  1.0000
  C   C372      1.0  0.71274  0.70722  0.69029  1.0000
  C   C373      1.0  0.73305  0.71595  0.69430  1.0000
  C   C374      1.0  0.74464  0.70723  0.69029  1.0000
  C   C375      1.0  0.68657  0.65485  0.66624  1.0000
  C   C376      1.0  0.67785  0.63740  0.65823  1.0000
  C   C377      1.0  0.68944  0.62868  0.65423  1.0000
  C   C378      1.0  0.70975  0.63740  0.65824  1.0000
  C   C379      1.0  0.68071  0.61122  0.64621  1.0000
  C   C380      1.0  0.66040  0.60249  0.64220  1.0000
  C   C381      1.0  0.64880  0.61121  0.64621  1.0000
  C   C382      1.0  0.65753  0.62867  0.65422  1.0000
  C   C383      1.0  0.79974  0.68978  0.68229  1.0000
  C   C384      1.0  0.81133  0.68106  0.67829  1.0000
  C   C385      1.0  0.80260  0.66360  0.67027  1.0000
  C   C386      1.0  0.78228  0.65487  0.66626  1.0000
  H   H145      1.0  0.74392  0.64194  0.66032  1.0000
  H   H146      1.0  0.77428  0.70269  0.68822  1.0000
  H   H147      1.0  0.68897  0.68330  0.67930  1.0000
  H   H148      1.0  0.75968  0.71369  0.69326  1.0000
  H   H149      1.0  0.67798  0.66131  0.66921  1.0000
  H   H150      1.0  0.71833  0.63094  0.65527  1.0000
  H   H151      1.0  0.68929  0.60476  0.64325  1.0000
  O   O73       1.0  0.65190  0.58548  0.63440  1.0000
  O   O74       1.0  0.62902  0.60271  0.64230  1.0000
  H   H152      1.0  0.64895  0.63513  0.65719  1.0000
  H   H153      1.0  0.80619  0.70270  0.68822  1.0000
  O   O75       1.0  0.83112  0.68956  0.68219  1.0000
  O   O76       1.0  0.81389  0.65510  0.66637  1.0000
  H   H154      1.0  0.77583  0.64195  0.66033  1.0000
  C   C387      1.0  0.74178  0.73341  0.70231  1.0000
  C   C388      1.0  0.73019  0.74214  0.70632  1.0000
  C   C389      1.0  0.70987  0.73340  0.70230  1.0000
  C   C390      1.0  0.70114  0.71594  0.69429  1.0000
  H   H155      1.0  0.75682  0.73987  0.70528  1.0000
  O   O77       1.0  0.73869  0.75914  0.71412  1.0000
  O   O78       1.0  0.69858  0.74190  0.70620  1.0000
  H   H156      1.0  0.68611  0.70948  0.69132  1.0000
  C   C391      1.0  0.33055  0.07188  0.67831  1.0000
  C   C392      1.0  0.34799  0.08060  0.67030  1.0000
  C   C393      1.0  0.35672  0.06901  0.66629  1.0000
  C   C394      1.0  0.34800  0.04870  0.67030  1.0000
  C   C395      1.0  0.33054  0.03998  0.67832  1.0000
  C   C396      1.0  0.32182  0.05157  0.68232  1.0000
  C   C397      1.0  0.35672  0.03711  0.66630  1.0000
  C   C398      1.0  0.37417  0.04583  0.65828  1.0000
  C   C399      1.0  0.38290  0.06615  0.65427  1.0000
  C   C400      1.0  0.37417  0.07774  0.65828  1.0000
  C   C401      1.0  0.32182  0.08348  0.68231  1.0000
  C   C402      1.0  0.33054  0.10378  0.67831  1.0000
  C   C403      1.0  0.34800  0.11251  0.67029  1.0000
  C   C404      1.0  0.35672  0.10092  0.66628  1.0000
  C   C405      1.0  0.30436  0.04284  0.69034  1.0000
  C   C406      1.0  0.29564  0.02253  0.69435  1.0000
  C   C407      1.0  0.30437  0.01094  0.69034  1.0000
  C   C408      1.0  0.32181  0.01966  0.68233  1.0000
  C   C409      1.0  0.29564  0.99062  0.69435  1.0000
  C   C410      1.0  0.27818  0.98190  0.70237  1.0000
  C   C411      1.0  0.26945  0.99349  0.70637  1.0000
  C   C412      1.0  0.27818  0.01381  0.70236  1.0000
  C   C413      1.0  0.40036  0.07487  0.64626  1.0000
  C   C414      1.0  0.40908  0.06328  0.64225  1.0000
  C   C415      1.0  0.40035  0.04296  0.64626  1.0000
  C   C416      1.0  0.38290  0.03424  0.65428  1.0000
  H   H157      1.0  0.35026  0.02207  0.66927  1.0000
  H   H158      1.0  0.38063  0.09277  0.65531  1.0000
  H   H159      1.0  0.30889  0.07701  0.68825  1.0000
  H   H160      1.0  0.36964  0.10737  0.66035  1.0000
  H   H161      1.0  0.29790  0.05142  0.69330  1.0000
  H   H162      1.0  0.32827  0.01108  0.67936  1.0000
  H   H163      1.0  0.30209  0.98204  0.69139  1.0000
  O   O79       1.0  0.26968  0.96211  0.70628  1.0000
  O   O80       1.0  0.25245  0.98499  0.71418  1.0000
  H   H164      1.0  0.27172  0.02239  0.70533  1.0000
  H   H165      1.0  0.40681  0.08991  0.64329  1.0000
  O   O81       1.0  0.42608  0.07178  0.63444  1.0000
  O   O82       1.0  0.40885  0.03167  0.64236  1.0000
  H   H166      1.0  0.37644  0.01920  0.65725  1.0000
  C   C417      1.0  0.35673  0.13283  0.66628  1.0000
  C   C418      1.0  0.34800  0.14442  0.67028  1.0000
  C   C419      1.0  0.33054  0.13569  0.67830  1.0000
  C   C420      1.0  0.32181  0.11537  0.68231  1.0000
  H   H167      1.0  0.36964  0.13928  0.66034  1.0000
  O   O83       1.0  0.35650  0.16420  0.66638  1.0000
  O   O84       1.0  0.32205  0.14698  0.68220  1.0000
  H   H168      1.0  0.30890  0.10892  0.68824  1.0000
  C   C421      1.0  0.93098  0.27280  0.67027  1.0000
  C   C422      1.0  0.93970  0.26408  0.67828  1.0000
  C   C423      1.0  0.96002  0.27567  0.68228  1.0000
  C   C424      1.0  0.97161  0.29598  0.67828  1.0000
  C   C425      1.0  0.96289  0.30471  0.67027  1.0000
  C   C426      1.0  0.94257  0.29312  0.66626  1.0000
  C   C427      1.0  0.99193  0.30758  0.68229  1.0000
  C   C428      1.0  0.00010  0.29886  0.69030  1.0000
  C   C429      1.0  0.98906  0.27854  0.69430  1.0000
  C   C430      1.0  0.96874  0.26695  0.69030  1.0000
  C   C431      1.0  0.91066  0.26120  0.66626  1.0000
  C   C432      1.0  0.89907  0.24089  0.67026  1.0000
  C   C433      1.0  0.90780  0.23217  0.67827  1.0000
  C   C434      1.0  0.92811  0.24376  0.68228  1.0000
  C   C435      1.0  0.93385  0.30185  0.65825  1.0000
  C   C436      1.0  0.94544  0.32216  0.65425  1.0000
  C   C437      1.0  0.96576  0.33375  0.65826  1.0000
  C   C438      1.0  0.97448  0.32503  0.66626  1.0000
  C   C439      1.0  0.97735  0.35407  0.65425  1.0000
  C   C440      1.0  0.96863  0.36280  0.64624  1.0000
  C   C441      1.0  0.94831  0.35121  0.64223  1.0000
  C   C442      1.0  0.93672  0.33089  0.64624  1.0000
  C   C443      1.0  0.99778  0.26981  0.70232  1.0000
  C   C444      1.0  0.01810  0.28140  0.70632  1.0000
  C   C445      1.0  0.02969  0.30173  0.70232  1.0000
  C   C446      1.0  0.02097  0.31045  0.69430  1.0000
  H   H169      1.0  0.00010  0.32263  0.67932  1.0000
  H   H170      1.0  0.96016  0.25191  0.69326  1.0000
  H   H171      1.0  0.90421  0.26767  0.66033  1.0000
  H   H172      1.0  0.93457  0.23730  0.68821  1.0000
  H   H173      1.0  0.91881  0.29326  0.65528  1.0000
  H   H174      1.0  0.98952  0.33362  0.66923  1.0000
  H   H175      1.0  0.99239  0.36265  0.65722  1.0000
  O   O85       1.0  0.97992  0.38259  0.64234  1.0000
  O   O86       1.0  0.93981  0.35970  0.63443  1.0000
  H   H176      1.0  0.92168  0.32230  0.64327  1.0000
  H   H177      1.0  0.98920  0.25477  0.70528  1.0000
  O   O87       1.0  0.02660  0.27291  0.71413  1.0000
  O   O88       1.0  0.04948  0.31302  0.70622  1.0000
  H   H178      1.0  0.02955  0.32549  0.69134  1.0000
  C   C447      1.0  0.89620  0.21184  0.68228  1.0000
  C   C448      1.0  0.87589  0.20025  0.67827  1.0000
  C   C449      1.0  0.86716  0.20898  0.67026  1.0000
  C   C450      1.0  0.87876  0.22930  0.66625  1.0000
  H   H179      1.0  0.90266  0.20539  0.68821  1.0000
  O   O89       1.0  0.86460  0.18046  0.68217  1.0000
  O   O90       1.0  0.84737  0.19769  0.66636  1.0000
  H   H180      1.0  0.87230  0.23576  0.66032  1.0000
  C   C451      1.0  0.93968  0.68104  0.67831  1.0000
  C   C452      1.0  0.93096  0.66360  0.67030  1.0000
  C   C453      1.0  0.94255  0.65487  0.66629  1.0000
  C   C454      1.0  0.96286  0.66359  0.67030  1.0000
  C   C455      1.0  0.97159  0.68105  0.67831  1.0000
  C   C456      1.0  0.95999  0.68978  0.68232  1.0000
  C   C457      1.0  0.97445  0.65487  0.66629  1.0000
  C   C458      1.0  0.96573  0.63742  0.65828  1.0000
  C   C459      1.0  0.94541  0.62869  0.65427  1.0000
  C   C460      1.0  0.93382  0.63741  0.65827  1.0000
  C   C461      1.0  0.92808  0.68977  0.68231  1.0000
  C   C462      1.0  0.90778  0.68105  0.67831  1.0000
  C   C463      1.0  0.89905  0.66359  0.67029  1.0000
  C   C464      1.0  0.91064  0.65486  0.66629  1.0000
  C   C465      1.0  0.96872  0.70723  0.69034  1.0000
  C   C466      1.0  0.98903  0.71596  0.69434  1.0000
  C   C467      1.0  0.00010  0.70723  0.69033  1.0000
  C   C468      1.0  0.99190  0.68978  0.68232  1.0000
  C   C469      1.0  0.02094  0.71597  0.69435  1.0000
  C   C470      1.0  0.02967  0.73342  0.70236  1.0000
  C   C471      1.0  0.01808  0.74215  0.70637  1.0000
  C   C472      1.0  0.99776  0.73342  0.70236  1.0000
  C   C473      1.0  0.93669  0.61123  0.64625  1.0000
  C   C474      1.0  0.94828  0.60251  0.64225  1.0000
  C   C475      1.0  0.96860  0.61124  0.64626  1.0000
  C   C476      1.0  0.97732  0.62870  0.65427  1.0000
  H   H181      1.0  0.98950  0.66134  0.66926  1.0000
  H   H182      1.0  0.91879  0.63095  0.65531  1.0000
  H   H183      1.0  0.93455  0.70270  0.68825  1.0000
  H   H184      1.0  0.90419  0.64195  0.66035  1.0000
  H   H185      1.0  0.96014  0.71369  0.69330  1.0000
  H   H186      1.0  0.00010  0.68333  0.67936  1.0000
  H   H187      1.0  0.02952  0.70951  0.69138  1.0000
  O   O91       1.0  0.04945  0.74193  0.70627  1.0000
  O   O92       1.0  0.02657  0.75915  0.71417  1.0000
  H   H188      1.0  0.98918  0.73987  0.70532  1.0000
  H   H189      1.0  0.92165  0.60477  0.64329  1.0000
  O   O93       1.0  0.93978  0.58551  0.63444  1.0000
  O   O94       1.0  0.97988  0.60274  0.64235  1.0000
  H   H190      1.0  0.99236  0.63516  0.65724  1.0000
  C   C477      1.0  0.87873  0.65486  0.66628  1.0000
  C   C478      1.0  0.86714  0.66358  0.67029  1.0000
  C   C479      1.0  0.87587  0.68104  0.67830  1.0000
  C   C480      1.0  0.89619  0.68977  0.68231  1.0000
  H   H191      1.0  0.87228  0.64194  0.66035  1.0000
  O   O95       1.0  0.84735  0.65508  0.66638  1.0000
  O   O96       1.0  0.86458  0.68954  0.68221  1.0000
  H   H192      1.0  0.90264  0.70269  0.68825  1.0000
  C   C481      1.0  0.33047  0.29592  0.67824  1.0000
  C   C482      1.0  0.32175  0.27561  0.68224  1.0000
  C   C483      1.0  0.33047  0.26402  0.67824  1.0000
  C   C484      1.0  0.34792  0.27273  0.67023  1.0000
  C   C485      1.0  0.35665  0.29305  0.66622  1.0000
  C   C486      1.0  0.34793  0.30464  0.67022  1.0000
  C   C487      1.0  0.35665  0.26114  0.66623  1.0000
  C   C488      1.0  0.34793  0.24084  0.67023  1.0000
  C   C489      1.0  0.33047  0.23211  0.67825  1.0000
  C   C490      1.0  0.32174  0.24370  0.68225  1.0000
  C   C491      1.0  0.32174  0.30751  0.68224  1.0000
  C   C492      1.0  0.30429  0.29879  0.69025  1.0000
  C   C493      1.0  0.29556  0.27847  0.69426  1.0000
  C   C494      1.0  0.30429  0.26688  0.69026  1.0000
  C   C495      1.0  0.35666  0.32496  0.66621  1.0000
  C   C496      1.0  0.37410  0.33368  0.65820  1.0000
  C   C497      1.0  0.38283  0.32209  0.65420  1.0000
  C   C498      1.0  0.37411  0.30178  0.65820  1.0000
  C   C499      1.0  0.40029  0.33081  0.64618  1.0000
  C   C500      1.0  0.40902  0.35113  0.64217  1.0000
  C   C501      1.0  0.40029  0.36272  0.64617  1.0000
  C   C502      1.0  0.38284  0.35400  0.65419  1.0000
  C   C503      1.0  0.32174  0.21179  0.68226  1.0000
  C   C504      1.0  0.33046  0.20020  0.67826  1.0000
  C   C505      1.0  0.34792  0.20893  0.67024  1.0000
  C   C506      1.0  0.35665  0.22925  0.66623  1.0000
  H   H193      1.0  0.36957  0.26761  0.66029  1.0000
  H   H194      1.0  0.30882  0.23725  0.68818  1.0000
  H   H195      1.0  0.32821  0.32255  0.67927  1.0000
  H   H196      1.0  0.29783  0.25185  0.69323  1.0000
  H   H197      1.0  0.35020  0.33354  0.66917  1.0000
  H   H198      1.0  0.38057  0.29320  0.65524  1.0000
  H   H199      1.0  0.40675  0.32223  0.64322  1.0000
  O   O97       1.0  0.42602  0.35963  0.63436  1.0000
  O   O98       1.0  0.40879  0.38251  0.64227  1.0000
  H   H200      1.0  0.37638  0.36258  0.65715  1.0000
  H   H201      1.0  0.30882  0.20534  0.68819  1.0000
  O   O99       1.0  0.32196  0.18041  0.68216  1.0000
  O   O100      1.0  0.35642  0.19764  0.66634  1.0000
  H   H202      1.0  0.36957  0.23570  0.66030  1.0000
  C   C507      1.0  0.27811  0.26975  0.70228  1.0000
  C   C508      1.0  0.26938  0.28134  0.70628  1.0000
  C   C509      1.0  0.27811  0.30165  0.70227  1.0000
  C   C510      1.0  0.29557  0.31038  0.69426  1.0000
  H   H203      1.0  0.27165  0.25471  0.70525  1.0000
  O   O101      1.0  0.25238  0.27284  0.71409  1.0000
  O   O102      1.0  0.26961  0.31294  0.70617  1.0000
  H   H204      1.0  0.30203  0.32542  0.69129  1.0000
  C   C511      1.0  0.70686  0.04866  0.67023  1.0000
  C   C512      1.0  0.71845  0.06897  0.66623  1.0000
  C   C513      1.0  0.73877  0.08056  0.67023  1.0000
  C   C514      1.0  0.74750  0.07184  0.67824  1.0000
  C   C515      1.0  0.73590  0.05152  0.68225  1.0000
  C   C516      1.0  0.71559  0.03993  0.67824  1.0000
  C   C517      1.0  0.76781  0.08344  0.68225  1.0000
  C   C518      1.0  0.77940  0.10375  0.67825  1.0000
  C   C519      1.0  0.77068  0.11247  0.67023  1.0000
  C   C520      1.0  0.75036  0.10088  0.66623  1.0000
  C   C521      1.0  0.68655  0.03706  0.66622  1.0000
  C   C522      1.0  0.67782  0.04578  0.65821  1.0000
  C   C523      1.0  0.68941  0.06610  0.65421  1.0000
  C   C524      1.0  0.70973  0.07769  0.65821  1.0000
  C   C525      1.0  0.70399  0.01961  0.68225  1.0000
  C   C526      1.0  0.71272  0.01089  0.69026  1.0000
  C   C527      1.0  0.73303  0.02249  0.69427  1.0000
  C   C528      1.0  0.74463  0.04279  0.69026  1.0000
  C   C529      1.0  0.74176  0.01376  0.70228  1.0000
  C   C530      1.0  0.73017  0.99344  0.70629  1.0000
  C   C531      1.0  0.70985  0.98184  0.70228  1.0000
  C   C532      1.0  0.70113  0.99057  0.69427  1.0000
  C   C533      1.0  0.78227  0.13279  0.66623  1.0000
  C   C534      1.0  0.80259  0.14439  0.67023  1.0000
  C   C535      1.0  0.81131  0.13566  0.67825  1.0000
  C   C536      1.0  0.79972  0.11534  0.68225  1.0000
  H   H205      1.0  0.77427  0.07697  0.68818  1.0000
  H   H206      1.0  0.74391  0.10733  0.66030  1.0000
  H   H207      1.0  0.67796  0.02201  0.66919  1.0000
  H   H208      1.0  0.71831  0.09273  0.65525  1.0000
  H   H209      1.0  0.68895  0.01103  0.67928  1.0000
  H   H210      1.0  0.75967  0.05138  0.69323  1.0000
  H   H211      1.0  0.75680  0.02234  0.70525  1.0000
  O   O103      1.0  0.73866  0.98494  0.71409  1.0000
  O   O104      1.0  0.69856  0.96206  0.70618  1.0000
  H   H212      1.0  0.68609  0.98199  0.69130  1.0000
  H   H213      1.0  0.77582  0.13925  0.66030  1.0000
  O   O105      1.0  0.81388  0.16418  0.66633  1.0000
  O   O106      1.0  0.83110  0.14695  0.68215  1.0000
  H   H214      1.0  0.80618  0.10888  0.68818  1.0000
  C   C537      1.0  0.68069  0.07483  0.64619  1.0000
  C   C538      1.0  0.66037  0.06323  0.64219  1.0000
  C   C539      1.0  0.64878  0.04291  0.64619  1.0000
  C   C540      1.0  0.65751  0.03419  0.65421  1.0000
  H   H215      1.0  0.68927  0.08986  0.64323  1.0000
  O   O107      1.0  0.65188  0.07173  0.63438  1.0000
  O   O108      1.0  0.62899  0.03162  0.64229  1.0000
  H   H216      1.0  0.64892  0.01915  0.65717  1.0000
  C   C541      1.0  0.37789  0.20091  0.08021  1.0000
  C   C542      1.0  0.37366  0.20800  0.09202  1.0000
  C   C543      1.0  0.36943  0.19668  0.10384  1.0000
  C   C544      1.0  0.36943  0.17826  0.10384  1.0000
  C   C545      1.0  0.37366  0.17116  0.09202  1.0000
  C   C546      1.0  0.37789  0.18249  0.08021  1.0000
  C   C547      1.0  0.36520  0.16694  0.11565  1.0000
  C   C548      1.0  0.36098  0.17403  0.12747  1.0000
  C   C549      1.0  0.36098  0.19246  0.12747  1.0000
  C   C550      1.0  0.36520  0.20378  0.11566  1.0000
  C   C551      1.0  0.38211  0.21223  0.06840  1.0000
  C   C552      1.0  0.38211  0.23064  0.06839  1.0000
  C   C553      1.0  0.37788  0.23774  0.08021  1.0000
  C   C554      1.0  0.37366  0.22642  0.09203  1.0000
  C   C555      1.0  0.38212  0.17539  0.06839  1.0000
  C   C556      1.0  0.38212  0.15697  0.06839  1.0000
  C   C557      1.0  0.37789  0.14565  0.08020  1.0000
  C   C558      1.0  0.37366  0.15274  0.09202  1.0000
  C   C559      1.0  0.37789  0.12723  0.08020  1.0000
  C   C560      1.0  0.38212  0.12013  0.06838  1.0000
  C   C561      1.0  0.38635  0.13145  0.05657  1.0000
  C   C562      1.0  0.38635  0.14987  0.05657  1.0000
  C   C563      1.0  0.35675  0.19956  0.13929  1.0000
  C   C564      1.0  0.35252  0.18823  0.15111  1.0000
  C   C565      1.0  0.35252  0.16981  0.15110  1.0000
  C   C566      1.0  0.35675  0.16271  0.13928  1.0000
  H   H217      1.0  0.36521  0.15330  0.11565  1.0000
  H   H218      1.0  0.36520  0.21741  0.11566  1.0000
  H   H219      1.0  0.38524  0.20697  0.05964  1.0000
  H   H220      1.0  0.37053  0.23167  0.10077  1.0000
  H   H221      1.0  0.38525  0.18377  0.05964  1.0000
  H   H222      1.0  0.37053  0.14436  0.10076  1.0000
  H   H223      1.0  0.37476  0.11885  0.08895  1.0000
  O   O109      1.0  0.38212  0.10219  0.06838  1.0000
  O   O110      1.0  0.39047  0.12454  0.04506  1.0000
  H   H224      1.0  0.38948  0.15826  0.04782  1.0000
  H   H225      1.0  0.35675  0.21319  0.13929  1.0000
  O   O111      1.0  0.34840  0.19515  0.16262  1.0000
  O   O112      1.0  0.34840  0.15878  0.16261  1.0000
  H   H226      1.0  0.35675  0.14908  0.13928  1.0000
  C   C567      1.0  0.37788  0.25617  0.08022  1.0000
  C   C568      1.0  0.38211  0.26749  0.06840  1.0000
  C   C569      1.0  0.38634  0.26039  0.05658  1.0000
  C   C570      1.0  0.38634  0.24197  0.05658  1.0000
  H   H227      1.0  0.37475  0.26142  0.08896  1.0000
  O   O113      1.0  0.38211  0.28543  0.06840  1.0000
  O   O114      1.0  0.39045  0.27142  0.04508  1.0000
  H   H228      1.0  0.38947  0.23672  0.04783  1.0000
  C   C571      1.0  0.81068  0.18254  0.08024  1.0000
  C   C572      1.0  0.80359  0.17122  0.09205  1.0000
  C   C573      1.0  0.81491  0.17831  0.10387  1.0000
  C   C574      1.0  0.83333  0.19672  0.10387  1.0000
  C   C575      1.0  0.84043  0.20806  0.09206  1.0000
  C   C576      1.0  0.82910  0.20096  0.08024  1.0000
  C   C577      1.0  0.84466  0.20382  0.11569  1.0000
  C   C578      1.0  0.83757  0.19249  0.12750  1.0000
  C   C579      1.0  0.81914  0.17407  0.12750  1.0000
  C   C580      1.0  0.80781  0.16698  0.11568  1.0000
  C   C581      1.0  0.79935  0.17544  0.06843  1.0000
  C   C582      1.0  0.78093  0.15703  0.06842  1.0000
  C   C583      1.0  0.77383  0.14570  0.08024  1.0000
  C   C584      1.0  0.78516  0.15279  0.09205  1.0000
  C   C585      1.0  0.83620  0.21230  0.06843  1.0000
  C   C586      1.0  0.85462  0.23071  0.06843  1.0000
  C   C587      1.0  0.86595  0.23780  0.08025  1.0000
  C   C588      1.0  0.85886  0.22648  0.09206  1.0000
  C   C589      1.0  0.88438  0.25623  0.08025  1.0000
  C   C590      1.0  0.89148  0.26756  0.06844  1.0000
  C   C591      1.0  0.88015  0.26047  0.05662  1.0000
  C   C592      1.0  0.86172  0.24204  0.05662  1.0000
  C   C593      1.0  0.81204  0.16274  0.13931  1.0000
  C   C594      1.0  0.82336  0.16983  0.15113  1.0000
  C   C595      1.0  0.84179  0.18825  0.15113  1.0000
  C   C596      1.0  0.84889  0.19959  0.13931  1.0000
  H   H229      1.0  0.85830  0.21746  0.11569  1.0000
  H   H230      1.0  0.79418  0.15334  0.11568  1.0000
  H   H231      1.0  0.80461  0.18384  0.05968  1.0000
  H   H232      1.0  0.77991  0.14441  0.10080  1.0000
  H   H233      1.0  0.82782  0.20705  0.05968  1.0000
  H   H234      1.0  0.86724  0.23173  0.10081  1.0000
  H   H235      1.0  0.89276  0.26148  0.08900  1.0000
  O   O115      1.0  0.90942  0.28551  0.06844  1.0000
  O   O116      1.0  0.88706  0.27151  0.04512  1.0000
  H   H236      1.0  0.85334  0.23679  0.04787  1.0000
  H   H237      1.0  0.79840  0.14910  0.13931  1.0000
  O   O117      1.0  0.81645  0.15879  0.16263  1.0000
  O   O118      1.0  0.85282  0.19516  0.16263  1.0000
  H   H238      1.0  0.86253  0.21322  0.13931  1.0000
  C   C597      1.0  0.75541  0.12727  0.08024  1.0000
  C   C598      1.0  0.74408  0.12018  0.06842  1.0000
  C   C599      1.0  0.75118  0.13151  0.05661  1.0000
  C   C600      1.0  0.76961  0.14994  0.05661  1.0000
  H   H239      1.0  0.75015  0.11889  0.08898  1.0000
  O   O119      1.0  0.72613  0.10223  0.06842  1.0000
  O   O120      1.0  0.74015  0.12460  0.04510  1.0000
  H   H240      1.0  0.77486  0.15832  0.04787  1.0000
  C   C601      1.0  0.80362  0.63797  0.09202  1.0000
  C   C602      1.0  0.81072  0.63374  0.08021  1.0000
  C   C603      1.0  0.82914  0.63374  0.08021  1.0000
  C   C604      1.0  0.84046  0.63796  0.09202  1.0000
  C   C605      1.0  0.83336  0.64218  0.10384  1.0000
  C   C606      1.0  0.81494  0.64219  0.10384  1.0000
  C   C607      1.0  0.85887  0.63796  0.09202  1.0000
  C   C608      1.0  0.86597  0.63373  0.08020  1.0000
  C   C609      1.0  0.85465  0.62951  0.06839  1.0000
  C   C610      1.0  0.83623  0.62952  0.06839  1.0000
  C   C611      1.0  0.78520  0.63797  0.09203  1.0000
  C   C612      1.0  0.77388  0.63375  0.08022  1.0000
  C   C613      1.0  0.78098  0.62952  0.06840  1.0000
  C   C614      1.0  0.79940  0.62952  0.06839  1.0000
  C   C615      1.0  0.80784  0.64641  0.11566  1.0000
  C   C616      1.0  0.81916  0.65063  0.12747  1.0000
  C   C617      1.0  0.83758  0.65063  0.12747  1.0000
  C   C618      1.0  0.84468  0.64641  0.11566  1.0000
  C   C619      1.0  0.84890  0.65485  0.13929  1.0000
  C   C620      1.0  0.84180  0.65907  0.15111  1.0000
  C   C621      1.0  0.82338  0.65908  0.15111  1.0000
  C   C622      1.0  0.81206  0.65486  0.13929  1.0000
  C   C623      1.0  0.86175  0.62529  0.05656  1.0000
  C   C624      1.0  0.88017  0.62529  0.05656  1.0000
  C   C625      1.0  0.89149  0.62951  0.06838  1.0000
  C   C626      1.0  0.88439  0.63373  0.08020  1.0000
  H   H241      1.0  0.86725  0.64108  0.10077  1.0000
  H   H242      1.0  0.82786  0.62639  0.05964  1.0000
  H   H243      1.0  0.77995  0.64110  0.10078  1.0000
  H   H244      1.0  0.80465  0.62640  0.05965  1.0000
  H   H245      1.0  0.79421  0.64641  0.11566  1.0000
  H   H246      1.0  0.85831  0.64640  0.11566  1.0000
  H   H247      1.0  0.86253  0.65485  0.13929  1.0000
  O   O121      1.0  0.85283  0.66319  0.16262  1.0000
  O   O122      1.0  0.81647  0.66319  0.16262  1.0000
  H   H248      1.0  0.79843  0.65486  0.13930  1.0000
  H   H249      1.0  0.85337  0.62216  0.04782  1.0000
  O   O123      1.0  0.88708  0.62117  0.04505  1.0000
  O   O124      1.0  0.90943  0.62950  0.06838  1.0000
  H   H250      1.0  0.89277  0.63686  0.08895  1.0000
  C   C627      1.0  0.76966  0.62530  0.05658  1.0000
  C   C628      1.0  0.75124  0.62531  0.05658  1.0000
  C   C629      1.0  0.74414  0.62953  0.06840  1.0000
  C   C630      1.0  0.75546  0.63375  0.08022  1.0000
  H   H251      1.0  0.77491  0.62218  0.04783  1.0000
  O   O125      1.0  0.74022  0.62119  0.04507  1.0000
  O   O126      1.0  0.72620  0.62953  0.06840  1.0000
  H   H252      1.0  0.75021  0.63688  0.08896  1.0000
  C   C631      1.0  0.17138  0.37345  0.92319  1.0000
  C   C632      1.0  0.18270  0.37767  0.93499  1.0000
  C   C633      1.0  0.20112  0.37767  0.93499  1.0000
  C   C634      1.0  0.20822  0.37344  0.92318  1.0000
  C   C635      1.0  0.19690  0.36921  0.91136  1.0000
  C   C636      1.0  0.17848  0.36922  0.91136  1.0000
  C   C637      1.0  0.22664  0.37344  0.92318  1.0000
  C   C638      1.0  0.23796  0.37767  0.93499  1.0000
  C   C639      1.0  0.23087  0.38190  0.94681  1.0000
  C   C640      1.0  0.21245  0.38190  0.94681  1.0000
  C   C641      1.0  0.15296  0.37345  0.92319  1.0000
  C   C642      1.0  0.14587  0.37768  0.93500  1.0000
  C   C643      1.0  0.15719  0.38190  0.94682  1.0000
  C   C644      1.0  0.17561  0.38190  0.94681  1.0000
  C   C645      1.0  0.16715  0.36499  0.89955  1.0000
  C   C646      1.0  0.17425  0.36076  0.88774  1.0000
  C   C647      1.0  0.19267  0.36076  0.88773  1.0000
  C   C648      1.0  0.20399  0.36498  0.89954  1.0000
  C   C649      1.0  0.19976  0.35653  0.87591  1.0000
  C   C650      1.0  0.18844  0.35230  0.86410  1.0000
  C   C651      1.0  0.17002  0.35230  0.86410  1.0000
  C   C652      1.0  0.16292  0.35653  0.87592  1.0000
  C   C653      1.0  0.24219  0.38613  0.95862  1.0000
  C   C654      1.0  0.26061  0.38612  0.95862  1.0000
  C   C655      1.0  0.26770  0.38189  0.94680  1.0000
  C   C656      1.0  0.25638  0.37766  0.93498  1.0000
  H   H253      1.0  0.23189  0.37031  0.91442  1.0000
  H   H254      1.0  0.20719  0.38503  0.95555  1.0000
  H   H255      1.0  0.14458  0.37032  0.91444  1.0000
  H   H256      1.0  0.18399  0.38503  0.95556  1.0000
  H   H257      1.0  0.15352  0.36499  0.89955  1.0000
  H   H258      1.0  0.21762  0.36498  0.89954  1.0000
  H   H259      1.0  0.21340  0.35653  0.87591  1.0000
  O   O127      1.0  0.19535  0.34818  0.85259  1.0000
  O   O128      1.0  0.15899  0.34819  0.85259  1.0000
  H   H260      1.0  0.14929  0.35653  0.87592  1.0000
  H   H261      1.0  0.23694  0.38926  0.96737  1.0000
  O   O129      1.0  0.27164  0.39024  0.97013  1.0000
  O   O130      1.0  0.28564  0.38189  0.94680  1.0000
  H   H262      1.0  0.26163  0.37453  0.92624  1.0000
  C   C657      1.0  0.15010  0.38614  0.95864  1.0000
  C   C658      1.0  0.13168  0.38614  0.95864  1.0000
  C   C659      1.0  0.12035  0.38191  0.94682  1.0000
  C   C660      1.0  0.12745  0.37768  0.93500  1.0000
  H   H263      1.0  0.15848  0.38926  0.96738  1.0000
  O   O131      1.0  0.12477  0.39026  0.97015  1.0000
  O   O132      1.0  0.10241  0.38191  0.94683  1.0000
  H   H264      1.0  0.11907  0.37455  0.92626  1.0000
  C   C661      1.0  0.63395  0.82894  0.93499  1.0000
  C   C662      1.0  0.63817  0.84025  0.92318  1.0000
  C   C663      1.0  0.64240  0.83315  0.91136  1.0000
  C   C664      1.0  0.64240  0.81474  0.91136  1.0000
  C   C665      1.0  0.63818  0.80342  0.92318  1.0000
  C   C666      1.0  0.63395  0.81052  0.93499  1.0000
  C   C667      1.0  0.64663  0.80764  0.89954  1.0000
  C   C668      1.0  0.65085  0.81895  0.88773  1.0000
  C   C669      1.0  0.65085  0.83737  0.88773  1.0000
  C   C670      1.0  0.64662  0.84447  0.89954  1.0000
  C   C671      1.0  0.62973  0.83604  0.94681  1.0000
  C   C672      1.0  0.62972  0.85445  0.94681  1.0000
  C   C673      1.0  0.63395  0.86577  0.93499  1.0000
  C   C674      1.0  0.63817  0.85867  0.92318  1.0000
  C   C675      1.0  0.62973  0.79919  0.94681  1.0000
  C   C676      1.0  0.62973  0.78078  0.94681  1.0000
  C   C677      1.0  0.63395  0.77368  0.93499  1.0000
  C   C678      1.0  0.63818  0.78499  0.92318  1.0000
  C   C679      1.0  0.63396  0.75526  0.93499  1.0000
  C   C680      1.0  0.62973  0.74394  0.94681  1.0000
  C   C681      1.0  0.62551  0.75104  0.95863  1.0000
  C   C682      1.0  0.62551  0.76946  0.95862  1.0000
  C   C683      1.0  0.65507  0.84869  0.87591  1.0000
  C   C684      1.0  0.65930  0.84159  0.86409  1.0000
  C   C685      1.0  0.65930  0.82317  0.86409  1.0000
  C   C686      1.0  0.65507  0.81185  0.87591  1.0000
  H   H265      1.0  0.64662  0.79399  0.89954  1.0000
  H   H266      1.0  0.64662  0.85810  0.89955  1.0000
  H   H267      1.0  0.62660  0.82765  0.95556  1.0000
  H   H268      1.0  0.64130  0.86705  0.91443  1.0000
  H   H269      1.0  0.62660  0.80445  0.95556  1.0000
  H   H270      1.0  0.64130  0.77974  0.91443  1.0000
  H   H271      1.0  0.63708  0.75000  0.92624  1.0000
  O   O133      1.0  0.62973  0.72600  0.94681  1.0000
  O   O134      1.0  0.62139  0.74001  0.97013  1.0000
  H   H272      1.0  0.62238  0.77472  0.96737  1.0000
  H   H273      1.0  0.65507  0.86233  0.87591  1.0000
  O   O135      1.0  0.66341  0.85262  0.85258  1.0000
  O   O136      1.0  0.66341  0.81625  0.85258  1.0000
  H   H274      1.0  0.65507  0.79822  0.87591  1.0000
  C   C687      1.0  0.63395  0.88420  0.93499  1.0000
  C   C688      1.0  0.62972  0.89130  0.94681  1.0000
  C   C689      1.0  0.62550  0.87998  0.95863  1.0000
  C   C690      1.0  0.62550  0.86155  0.95863  1.0000
  H   H275      1.0  0.63707  0.89257  0.92625  1.0000
  O   O137      1.0  0.62972  0.90924  0.94681  1.0000
  O   O138      1.0  0.62138  0.88689  0.97014  1.0000
  H   H276      1.0  0.62237  0.85318  0.96737  1.0000
  C   C691      1.0  0.18274  0.81044  0.93496  1.0000
  C   C692      1.0  0.17142  0.80335  0.92315  1.0000
  C   C693      1.0  0.17851  0.81468  0.91134  1.0000
  C   C694      1.0  0.19693  0.83309  0.91133  1.0000
  C   C695      1.0  0.20826  0.84019  0.92315  1.0000
  C   C696      1.0  0.20116  0.82887  0.93496  1.0000
  C   C697      1.0  0.20402  0.84442  0.89952  1.0000
  C   C698      1.0  0.19271  0.83733  0.88771  1.0000
  C   C699      1.0  0.17428  0.81890  0.88771  1.0000
  C   C700      1.0  0.16718  0.80758  0.89952  1.0000
  C   C701      1.0  0.17564  0.79912  0.94678  1.0000
  C   C702      1.0  0.15722  0.78070  0.94678  1.0000
  C   C703      1.0  0.14589  0.77360  0.93496  1.0000
  C   C704      1.0  0.15299  0.78492  0.92315  1.0000
  C   C705      1.0  0.21249  0.83597  0.94678  1.0000
  C   C706      1.0  0.23091  0.85438  0.94678  1.0000
  C   C707      1.0  0.23801  0.86571  0.93496  1.0000
  C   C708      1.0  0.22669  0.85862  0.92315  1.0000
  C   C709      1.0  0.25643  0.88414  0.93496  1.0000
  C   C710      1.0  0.26776  0.89124  0.94678  1.0000
  C   C711      1.0  0.26067  0.87991  0.95859  1.0000
  C   C712      1.0  0.24224  0.86148  0.95859  1.0000
  C   C713      1.0  0.16295  0.81180  0.87589  1.0000
  C   C714      1.0  0.17004  0.82313  0.86408  1.0000
  C   C715      1.0  0.18847  0.84156  0.86408  1.0000
  C   C716      1.0  0.19980  0.84866  0.87589  1.0000
  H   H277      1.0  0.21767  0.85806  0.89952  1.0000
  H   H278      1.0  0.15355  0.79394  0.89952  1.0000
  H   H279      1.0  0.18403  0.80438  0.95553  1.0000
  H   H280      1.0  0.14461  0.77967  0.91441  1.0000
  H   H281      1.0  0.20724  0.82758  0.95552  1.0000
  H   H282      1.0  0.23194  0.86700  0.91441  1.0000
  H   H283      1.0  0.26169  0.89252  0.92622  1.0000
  O   O139      1.0  0.28571  0.90918  0.94678  1.0000
  O   O140      1.0  0.27170  0.88682  0.97010  1.0000
  H   H284      1.0  0.23699  0.85310  0.96734  1.0000
  H   H285      1.0  0.14931  0.79817  0.87589  1.0000
  O   O141      1.0  0.15901  0.81622  0.85257  1.0000
  O   O142      1.0  0.19538  0.85259  0.85257  1.0000
  H   H286      1.0  0.21344  0.86229  0.87589  1.0000
  C   C717      1.0  0.12747  0.75517  0.93496  1.0000
  C   C718      1.0  0.12037  0.74385  0.94678  1.0000
  C   C719      1.0  0.13170  0.75095  0.95859  1.0000
  C   C720      1.0  0.15013  0.76937  0.95859  1.0000
  H   H287      1.0  0.11909  0.74992  0.92622  1.0000
  O   O143      1.0  0.10243  0.72590  0.94678  1.0000
  O   O144      1.0  0.12479  0.73991  0.97010  1.0000
  H   H288      1.0  0.15851  0.77462  0.96734  1.0000
  C   C721      1.0  0.04453  0.53421  0.41355  1.0000
  C   C722      1.0  0.04031  0.54130  0.42536  1.0000
  C   C723      1.0  0.03608  0.52998  0.43718  1.0000
  C   C724      1.0  0.03608  0.51156  0.43718  1.0000
  C   C725      1.0  0.04031  0.50446  0.42536  1.0000
  C   C726      1.0  0.04453  0.51578  0.41355  1.0000
  C   C727      1.0  0.03186  0.50024  0.44900  1.0000
  C   C728      1.0  0.02763  0.50733  0.46081  1.0000
  C   C729      1.0  0.02763  0.52576  0.46081  1.0000
  C   C730      1.0  0.03186  0.53708  0.44900  1.0000
  C   C731      1.0  0.04876  0.54553  0.40174  1.0000
  C   C732      1.0  0.04876  0.56394  0.40173  1.0000
  C   C733      1.0  0.04453  0.57104  0.41355  1.0000
  C   C734      1.0  0.04030  0.55972  0.42537  1.0000
  C   C735      1.0  0.04876  0.50868  0.40173  1.0000
  C   C736      1.0  0.04876  0.49027  0.40173  1.0000
  C   C737      1.0  0.04454  0.47895  0.41354  1.0000
  C   C738      1.0  0.04031  0.48604  0.42536  1.0000
  C   C739      1.0  0.04454  0.46053  0.41354  1.0000
  C   C740      1.0  0.04877  0.45343  0.40172  1.0000
  C   C741      1.0  0.05299  0.46475  0.38991  1.0000
  C   C742      1.0  0.05299  0.48317  0.38991  1.0000
  C   C743      1.0  0.02340  0.53286  0.47263  1.0000
  C   C744      1.0  0.01918  0.52154  0.48445  1.0000
  C   C745      1.0  0.01918  0.50311  0.48444  1.0000
  C   C746      1.0  0.02341  0.49601  0.47262  1.0000
  H   H289      1.0  0.03186  0.48660  0.44899  1.0000
  H   H290      1.0  0.03186  0.55071  0.44900  1.0000
  H   H291      1.0  0.05189  0.54027  0.39298  1.0000
  H   H292      1.0  0.03718  0.56497  0.43412  1.0000
  H   H293      1.0  0.05189  0.51706  0.39298  1.0000
  H   H294      1.0  0.03718  0.47766  0.43410  1.0000
  H   H295      1.0  0.04141  0.45215  0.42229  1.0000
  O   O145      1.0  0.04877  0.43549  0.40172  1.0000
  O   O146      1.0  0.05711  0.45783  0.37839  1.0000
  H   H296      1.0  0.05612  0.49155  0.38116  1.0000
  H   H297      1.0  0.02340  0.54649  0.47263  1.0000
  O   O147      1.0  0.01506  0.52845  0.49596  1.0000
  O   O148      1.0  0.01507  0.49209  0.49595  1.0000
  H   H298      1.0  0.02341  0.48238  0.47262  1.0000
  C   C747      1.0  0.04453  0.58946  0.41356  1.0000
  C   C748      1.0  0.04875  0.60079  0.40174  1.0000
  C   C749      1.0  0.05298  0.59368  0.38992  1.0000
  C   C750      1.0  0.05298  0.57526  0.38992  1.0000
  H   H299      1.0  0.04140  0.59472  0.42230  1.0000
  O   O149      1.0  0.04875  0.61873  0.40174  1.0000
  O   O150      1.0  0.05709  0.60471  0.37842  1.0000
  H   H300      1.0  0.05611  0.57001  0.38117  1.0000
  C   C751      1.0  0.47730  0.51584  0.41360  1.0000
  C   C752      1.0  0.47021  0.50451  0.42541  1.0000
  C   C753      1.0  0.48153  0.51161  0.43722  1.0000
  C   C754      1.0  0.49995  0.53002  0.43723  1.0000
  C   C755      1.0  0.50705  0.54135  0.42541  1.0000
  C   C756      1.0  0.49572  0.53426  0.41360  1.0000
  C   C757      1.0  0.51128  0.53711  0.44904  1.0000
  C   C758      1.0  0.50419  0.52579  0.46085  1.0000
  C   C759      1.0  0.48576  0.50737  0.46085  1.0000
  C   C760      1.0  0.47444  0.50027  0.44904  1.0000
  C   C761      1.0  0.46597  0.50874  0.40179  1.0000
  C   C762      1.0  0.44755  0.49033  0.40178  1.0000
  C   C763      1.0  0.44045  0.47899  0.41360  1.0000
  C   C764      1.0  0.45178  0.48609  0.42541  1.0000
  C   C765      1.0  0.50282  0.54559  0.40179  1.0000
  C   C766      1.0  0.52124  0.56401  0.40179  1.0000
  C   C767      1.0  0.53257  0.57110  0.41360  1.0000
  C   C768      1.0  0.52548  0.55978  0.42541  1.0000
  C   C769      1.0  0.55099  0.58953  0.41360  1.0000
  C   C770      1.0  0.55809  0.60086  0.40179  1.0000
  C   C771      1.0  0.54677  0.59377  0.38998  1.0000
  C   C772      1.0  0.52834  0.57534  0.38998  1.0000
  C   C773      1.0  0.47866  0.49603  0.47267  1.0000
  C   C774      1.0  0.48999  0.50313  0.48448  1.0000
  C   C775      1.0  0.50842  0.52155  0.48448  1.0000
  C   C776      1.0  0.51552  0.53289  0.47267  1.0000
  H   H301      1.0  0.52493  0.55076  0.44904  1.0000
  H   H302      1.0  0.46080  0.48664  0.44904  1.0000
  H   H303      1.0  0.47123  0.51714  0.39304  1.0000
  H   H304      1.0  0.44653  0.47770  0.43415  1.0000
  H   H305      1.0  0.49444  0.54034  0.39304  1.0000
  H   H306      1.0  0.53386  0.56503  0.43416  1.0000
  H   H307      1.0  0.55938  0.59478  0.42235  1.0000
  O   O151      1.0  0.57604  0.61880  0.40179  1.0000
  O   O152      1.0  0.55368  0.60480  0.37847  1.0000
  H   H308      1.0  0.51995  0.57009  0.38123  1.0000
  H   H309      1.0  0.46503  0.48240  0.47267  1.0000
  O   O153      1.0  0.48308  0.49209  0.49599  1.0000
  O   O154      1.0  0.51945  0.52846  0.49599  1.0000
  H   H310      1.0  0.52915  0.54652  0.47267  1.0000
  C   C777      1.0  0.42202  0.46057  0.41360  1.0000
  C   C778      1.0  0.41070  0.45348  0.40178  1.0000
  C   C779      1.0  0.41780  0.46481  0.38997  1.0000
  C   C780      1.0  0.43622  0.48323  0.38997  1.0000
  H   H311      1.0  0.41677  0.45219  0.42234  1.0000
  O   O155      1.0  0.39275  0.43553  0.40178  1.0000
  O   O156      1.0  0.40676  0.45790  0.37846  1.0000
  H   H312      1.0  0.44147  0.49162  0.38122  1.0000
  C   C781      1.0  0.47027  0.97128  0.42533  1.0000
  C   C782      1.0  0.47737  0.96706  0.41352  1.0000
  C   C783      1.0  0.49579  0.96705  0.41352  1.0000
  C   C784      1.0  0.50711  0.97128  0.42533  1.0000
  C   C785      1.0  0.50001  0.97550  0.43715  1.0000
  C   C786      1.0  0.48160  0.97551  0.43715  1.0000
  C   C787      1.0  0.52553  0.97127  0.42532  1.0000
  C   C788      1.0  0.53263  0.96705  0.41351  1.0000
  C   C789      1.0  0.52130  0.96283  0.40169  1.0000
  C   C790      1.0  0.50289  0.96283  0.40170  1.0000
  C   C791      1.0  0.45186  0.97128  0.42533  1.0000
  C   C792      1.0  0.44054  0.96706  0.41353  1.0000
  C   C793      1.0  0.44763  0.96284  0.40170  1.0000
  C   C794      1.0  0.46605  0.96283  0.40170  1.0000
  C   C795      1.0  0.47450  0.97973  0.44897  1.0000
  C   C796      1.0  0.48582  0.98395  0.46078  1.0000
  C   C797      1.0  0.50424  0.98395  0.46078  1.0000
  C   C798      1.0  0.51134  0.97973  0.44896  1.0000
  C   C799      1.0  0.51556  0.98817  0.47259  1.0000
  C   C800      1.0  0.50847  0.99240  0.48442  1.0000
  C   C801      1.0  0.49005  0.99240  0.48442  1.0000
  C   C802      1.0  0.47873  0.98818  0.47260  1.0000
  C   C803      1.0  0.52840  0.95860  0.38987  1.0000
  C   C804      1.0  0.54682  0.95860  0.38987  1.0000
  C   C805      1.0  0.55814  0.96282  0.40169  1.0000
  C   C806      1.0  0.55104  0.96705  0.41351  1.0000
  H   H313      1.0  0.53391  0.97440  0.43407  1.0000
  H   H314      1.0  0.49451  0.95970  0.39295  1.0000
  H   H315      1.0  0.44660  0.97442  0.43409  1.0000
  H   H316      1.0  0.47130  0.95971  0.39296  1.0000
  H   H317      1.0  0.46087  0.97973  0.44897  1.0000
  H   H318      1.0  0.52497  0.97972  0.44896  1.0000
  H   H319      1.0  0.52920  0.98817  0.47259  1.0000
  O   O157      1.0  0.51949  0.99651  0.49592  1.0000
  O   O158      1.0  0.48314  0.99652  0.49593  1.0000
  H   H320      1.0  0.46509  0.98818  0.47260  1.0000
  H   H321      1.0  0.52002  0.95547  0.38113  1.0000
  O   O159      1.0  0.55373  0.95448  0.37836  1.0000
  O   O160      1.0  0.57608  0.96282  0.40168  1.0000
  H   H322      1.0  0.55943  0.97017  0.42225  1.0000
  C   C807      1.0  0.43631  0.95861  0.38989  1.0000
  C   C808      1.0  0.41789  0.95862  0.38989  1.0000
  C   C809      1.0  0.41079  0.96284  0.40171  1.0000
  C   C810      1.0  0.42212  0.96707  0.41353  1.0000
  H   H323      1.0  0.44156  0.95549  0.38114  1.0000
  O   O161      1.0  0.40686  0.95450  0.37838  1.0000
  O   O162      1.0  0.39285  0.96285  0.40171  1.0000
  H   H324      1.0  0.41686  0.97019  0.42228  1.0000
  C   C811      1.0  0.83800  0.70671  0.25654  1.0000
  C   C812      1.0  0.84932  0.71093  0.26835  1.0000
  C   C813      1.0  0.86774  0.71093  0.26834  1.0000
  C   C814      1.0  0.87484  0.70671  0.25653  1.0000
  C   C815      1.0  0.86352  0.70248  0.24471  1.0000
  C   C816      1.0  0.84510  0.70248  0.24472  1.0000
  C   C817      1.0  0.89326  0.70671  0.25653  1.0000
  C   C818      1.0  0.90458  0.71093  0.26834  1.0000
  C   C819      1.0  0.89748  0.71515  0.28016  1.0000
  C   C820      1.0  0.87906  0.71515  0.28016  1.0000
  C   C821      1.0  0.81959  0.70671  0.25654  1.0000
  C   C822      1.0  0.81249  0.71094  0.26835  1.0000
  C   C823      1.0  0.82381  0.71516  0.28017  1.0000
  C   C824      1.0  0.84223  0.71516  0.28017  1.0000
  C   C825      1.0  0.83378  0.69826  0.23290  1.0000
  C   C826      1.0  0.84088  0.69404  0.22109  1.0000
  C   C827      1.0  0.85930  0.69404  0.22108  1.0000
  C   C828      1.0  0.87062  0.69826  0.23289  1.0000
  C   C829      1.0  0.86639  0.68981  0.20926  1.0000
  C   C830      1.0  0.85507  0.68559  0.19744  1.0000
  C   C831      1.0  0.83665  0.68559  0.19745  1.0000
  C   C832      1.0  0.82956  0.68981  0.20927  1.0000
  C   C833      1.0  0.90881  0.71938  0.29198  1.0000
  C   C834      1.0  0.92722  0.71938  0.29197  1.0000
  C   C835      1.0  0.93432  0.71515  0.28015  1.0000
  C   C836      1.0  0.92300  0.71093  0.26834  1.0000
  H   H325      1.0  0.89851  0.70358  0.24777  1.0000
  H   H326      1.0  0.87381  0.71828  0.28891  1.0000
  H   H327      1.0  0.81120  0.70358  0.24779  1.0000
  H   H328      1.0  0.85061  0.71828  0.28891  1.0000
  H   H329      1.0  0.82014  0.69826  0.23290  1.0000
  H   H330      1.0  0.88425  0.69826  0.23289  1.0000
  H   H331      1.0  0.88003  0.68981  0.20926  1.0000
  O   O163      1.0  0.86198  0.68147  0.18593  1.0000
  O   O164      1.0  0.82563  0.68147  0.18594  1.0000
  H   H332      1.0  0.81592  0.68981  0.20927  1.0000
  H   H333      1.0  0.90355  0.72250  0.30072  1.0000
  O   O165      1.0  0.93825  0.72349  0.30348  1.0000
  O   O166      1.0  0.95226  0.71515  0.28015  1.0000
  H   H334      1.0  0.92825  0.70780  0.25959  1.0000
  C   C837      1.0  0.81671  0.71939  0.29199  1.0000
  C   C838      1.0  0.79829  0.71939  0.29199  1.0000
  C   C839      1.0  0.78697  0.71516  0.28017  1.0000
  C   C840      1.0  0.79407  0.71094  0.26835  1.0000
  H   H335      1.0  0.82509  0.72251  0.30073  1.0000
  O   O167      1.0  0.79138  0.72350  0.30350  1.0000
  O   O168      1.0  0.76903  0.71517  0.28018  1.0000
  H   H336      1.0  0.78569  0.70781  0.25961  1.0000
  C   C841      1.0  0.30059  0.16224  0.26832  1.0000
  C   C842      1.0  0.30481  0.17356  0.25651  1.0000
  C   C843      1.0  0.30904  0.16646  0.24469  1.0000
  C   C844      1.0  0.30904  0.14805  0.24469  1.0000
  C   C845      1.0  0.30482  0.13672  0.25650  1.0000
  C   C846      1.0  0.30059  0.14382  0.26832  1.0000
  C   C847      1.0  0.31327  0.14095  0.23287  1.0000
  C   C848      1.0  0.31750  0.15227  0.22106  1.0000
  C   C849      1.0  0.31750  0.17069  0.22106  1.0000
  C   C850      1.0  0.31327  0.17779  0.23288  1.0000
  C   C851      1.0  0.29636  0.16934  0.28014  1.0000
  C   C852      1.0  0.29636  0.18775  0.28015  1.0000
  C   C853      1.0  0.30058  0.19908  0.26833  1.0000
  C   C854      1.0  0.30481  0.19198  0.25651  1.0000
  C   C855      1.0  0.29636  0.13249  0.28014  1.0000
  C   C856      1.0  0.29636  0.11408  0.28013  1.0000
  C   C857      1.0  0.30059  0.10699  0.26831  1.0000
  C   C858      1.0  0.30482  0.11830  0.25650  1.0000
  C   C859      1.0  0.30059  0.08856  0.26831  1.0000
  C   C860      1.0  0.29637  0.07724  0.28013  1.0000
  C   C861      1.0  0.29214  0.08433  0.29195  1.0000
  C   C862      1.0  0.29214  0.10276  0.29195  1.0000
  C   C863      1.0  0.32172  0.18202  0.20924  1.0000
  C   C864      1.0  0.32595  0.17492  0.19743  1.0000
  C   C865      1.0  0.32595  0.15650  0.19743  1.0000
  C   C866      1.0  0.32172  0.14517  0.20924  1.0000
  H   H337      1.0  0.31327  0.12731  0.23287  1.0000
  H   H338      1.0  0.31327  0.19142  0.23288  1.0000
  H   H339      1.0  0.29323  0.16095  0.28889  1.0000
  H   H340      1.0  0.30794  0.20036  0.24777  1.0000
  H   H341      1.0  0.29323  0.13775  0.28889  1.0000
  H   H342      1.0  0.30795  0.11305  0.24776  1.0000
  H   H343      1.0  0.30372  0.08331  0.25957  1.0000
  O   O169      1.0  0.29637  0.05930  0.28013  1.0000
  O   O170      1.0  0.28802  0.07331  0.30345  1.0000
  H   H344      1.0  0.28901  0.10801  0.30070  1.0000
  H   H345      1.0  0.32172  0.19565  0.20925  1.0000
  O   O171      1.0  0.33007  0.18595  0.18592  1.0000
  O   O172      1.0  0.33007  0.14959  0.18592  1.0000
  H   H346      1.0  0.32173  0.13154  0.20924  1.0000
  C   C867      1.0  0.30058  0.21750  0.26833  1.0000
  C   C868      1.0  0.29635  0.22460  0.28015  1.0000
  C   C869      1.0  0.29213  0.21327  0.29197  1.0000
  C   C870      1.0  0.29213  0.19485  0.29196  1.0000
  H   H347      1.0  0.30371  0.22588  0.25959  1.0000
  O   O173      1.0  0.29635  0.24254  0.28015  1.0000
  O   O174      1.0  0.28801  0.22018  0.30348  1.0000
  H   H348      1.0  0.28900  0.18647  0.30071  1.0000
  C   C871      1.0  0.84939  0.14374  0.26828  1.0000
  C   C872      1.0  0.83807  0.13666  0.25647  1.0000
  C   C873      1.0  0.84517  0.14799  0.24466  1.0000
  C   C874      1.0  0.86359  0.16640  0.24466  1.0000
  C   C875      1.0  0.87492  0.17350  0.25647  1.0000
  C   C876      1.0  0.86782  0.16217  0.26828  1.0000
  C   C877      1.0  0.87068  0.17773  0.23284  1.0000
  C   C878      1.0  0.85937  0.17064  0.22103  1.0000
  C   C879      1.0  0.84094  0.15222  0.22103  1.0000
  C   C880      1.0  0.83384  0.14089  0.23284  1.0000
  C   C881      1.0  0.84229  0.13241  0.28009  1.0000
  C   C882      1.0  0.82388  0.11400  0.28009  1.0000
  C   C883      1.0  0.81255  0.10690  0.26828  1.0000
  C   C884      1.0  0.81965  0.11823  0.25646  1.0000
  C   C885      1.0  0.87915  0.16927  0.28010  1.0000
  C   C886      1.0  0.89756  0.18768  0.28010  1.0000
  C   C887      1.0  0.90466  0.19901  0.26829  1.0000
  C   C888      1.0  0.89334  0.19192  0.25648  1.0000
  C   C889      1.0  0.92309  0.21744  0.26829  1.0000
  C   C890      1.0  0.93442  0.22453  0.28011  1.0000
  C   C891      1.0  0.92732  0.21320  0.29192  1.0000
  C   C892      1.0  0.90889  0.19478  0.29192  1.0000
  C   C893      1.0  0.82961  0.14512  0.20921  1.0000
  C   C894      1.0  0.83671  0.15645  0.19740  1.0000
  C   C895      1.0  0.85513  0.17488  0.19740  1.0000
  C   C896      1.0  0.86646  0.18197  0.20922  1.0000
  H   H349      1.0  0.88433  0.19138  0.23285  1.0000
  H   H350      1.0  0.82021  0.12725  0.23284  1.0000
  H   H351      1.0  0.85068  0.13767  0.28884  1.0000
  H   H352      1.0  0.81126  0.11298  0.24772  1.0000
  H   H353      1.0  0.87389  0.16088  0.28885  1.0000
  H   H354      1.0  0.89860  0.20031  0.24773  1.0000
  H   H355      1.0  0.92834  0.22582  0.25955  1.0000
  O   O175      1.0  0.95236  0.24248  0.28011  1.0000
  O   O176      1.0  0.93835  0.22011  0.30343  1.0000
  H   H356      1.0  0.90364  0.18639  0.30066  1.0000
  H   H357      1.0  0.81597  0.13149  0.20921  1.0000
  O   O177      1.0  0.82568  0.14954  0.18589  1.0000
  O   O178      1.0  0.86205  0.18591  0.18590  1.0000
  H   H358      1.0  0.88010  0.19561  0.20922  1.0000
  C   C897      1.0  0.79412  0.08847  0.26827  1.0000
  C   C898      1.0  0.78702  0.07714  0.28009  1.0000
  C   C899      1.0  0.79835  0.08424  0.29190  1.0000
  C   C900      1.0  0.81678  0.10267  0.29191  1.0000
  H   H359      1.0  0.78574  0.08323  0.25953  1.0000
  O   O179      1.0  0.76908  0.05920  0.28008  1.0000
  O   O180      1.0  0.79144  0.07321  0.30341  1.0000
  H   H360      1.0  0.82516  0.10792  0.30065  1.0000
  C   C901      1.0  0.71119  0.86753  0.74687  1.0000
  C   C902      1.0  0.70696  0.87462  0.75868  1.0000
  C   C903      1.0  0.70274  0.86330  0.77050  1.0000
  C   C904      1.0  0.70274  0.84489  0.77050  1.0000
  C   C905      1.0  0.70696  0.83778  0.75869  1.0000
  C   C906      1.0  0.71119  0.84910  0.74687  1.0000
  C   C907      1.0  0.69851  0.83357  0.78232  1.0000
  C   C908      1.0  0.69429  0.84066  0.79413  1.0000
  C   C909      1.0  0.69429  0.85909  0.79413  1.0000
  C   C910      1.0  0.69851  0.87041  0.78232  1.0000
  C   C911      1.0  0.71541  0.87884  0.73505  1.0000
  C   C912      1.0  0.71541  0.89726  0.73505  1.0000
  C   C913      1.0  0.71119  0.90436  0.74687  1.0000
  C   C914      1.0  0.70696  0.89304  0.75869  1.0000
  C   C915      1.0  0.71542  0.84200  0.73505  1.0000
  C   C916      1.0  0.71542  0.82359  0.73506  1.0000
  C   C917      1.0  0.71119  0.81227  0.74687  1.0000
  C   C918      1.0  0.70697  0.81936  0.75868  1.0000
  C   C919      1.0  0.71119  0.79384  0.74687  1.0000
  C   C920      1.0  0.71542  0.78674  0.73505  1.0000
  C   C921      1.0  0.71964  0.79806  0.72324  1.0000
  C   C922      1.0  0.71964  0.81648  0.72324  1.0000
  C   C923      1.0  0.69006  0.86619  0.80595  1.0000
  C   C924      1.0  0.68583  0.85487  0.81777  1.0000
  C   C925      1.0  0.68584  0.83645  0.81777  1.0000
  C   C926      1.0  0.69006  0.82935  0.80595  1.0000
  H   H361      1.0  0.69852  0.81993  0.78232  1.0000
  H   H362      1.0  0.69851  0.88404  0.78232  1.0000
  H   H363      1.0  0.71854  0.87358  0.72630  1.0000
  H   H364      1.0  0.70383  0.89830  0.76743  1.0000
  H   H365      1.0  0.71854  0.85038  0.72630  1.0000
  H   H366      1.0  0.70384  0.81098  0.76743  1.0000
  H   H367      1.0  0.70807  0.78547  0.75562  1.0000
  O   O181      1.0  0.71542  0.76880  0.73505  1.0000
  O   O182      1.0  0.72376  0.79114  0.71173  1.0000
  H   H368      1.0  0.72277  0.82486  0.71449  1.0000
  H   H369      1.0  0.69006  0.87982  0.80595  1.0000
  O   O183      1.0  0.68172  0.86179  0.82928  1.0000
  O   O184      1.0  0.68172  0.82543  0.82928  1.0000
  H   H370      1.0  0.69006  0.81571  0.80595  1.0000
  C   C927      1.0  0.71118  0.92278  0.74687  1.0000
  C   C928      1.0  0.71541  0.93410  0.73505  1.0000
  C   C929      1.0  0.71964  0.92700  0.72324  1.0000
  C   C930      1.0  0.71964  0.90858  0.72323  1.0000
  H   H371      1.0  0.70806  0.92804  0.75562  1.0000
  O   O185      1.0  0.71541  0.95204  0.73505  1.0000
  O   O186      1.0  0.72375  0.93802  0.71173  1.0000
  H   H372      1.0  0.72277  0.90332  0.71449  1.0000
  C   C931      1.0  0.14399  0.84915  0.74692  1.0000
  C   C932      1.0  0.13690  0.83783  0.75873  1.0000
  C   C933      1.0  0.14823  0.84493  0.77055  1.0000
  C   C934      1.0  0.16665  0.86334  0.77055  1.0000
  C   C935      1.0  0.17375  0.87467  0.75873  1.0000
  C   C936      1.0  0.16242  0.86758  0.74692  1.0000
  C   C937      1.0  0.17798  0.87044  0.78236  1.0000
  C   C938      1.0  0.17089  0.85912  0.79418  1.0000
  C   C939      1.0  0.15246  0.84070  0.79418  1.0000
  C   C940      1.0  0.14113  0.83360  0.78236  1.0000
  C   C941      1.0  0.13267  0.84205  0.73511  1.0000
  C   C942      1.0  0.11425  0.82364  0.73510  1.0000
  C   C943      1.0  0.10715  0.81231  0.74692  1.0000
  C   C944      1.0  0.11848  0.81941  0.75873  1.0000
  C   C945      1.0  0.16952  0.87891  0.73510  1.0000
  C   C946      1.0  0.18794  0.89732  0.73511  1.0000
  C   C947      1.0  0.19927  0.90442  0.74692  1.0000
  C   C948      1.0  0.19218  0.89310  0.75873  1.0000
  C   C949      1.0  0.21769  0.92284  0.74692  1.0000
  C   C950      1.0  0.22479  0.93417  0.73510  1.0000
  C   C951      1.0  0.21346  0.92708  0.72329  1.0000
  C   C952      1.0  0.19504  0.90865  0.72329  1.0000
  C   C953      1.0  0.14536  0.82937  0.80599  1.0000
  C   C954      1.0  0.15669  0.83646  0.81781  1.0000
  C   C955      1.0  0.17511  0.85489  0.81780  1.0000
  C   C956      1.0  0.18221  0.86622  0.80599  1.0000
  H   H373      1.0  0.19162  0.88409  0.78236  1.0000
  H   H374      1.0  0.12750  0.81997  0.78236  1.0000
  H   H375      1.0  0.13793  0.85045  0.72636  1.0000
  H   H376      1.0  0.11323  0.81103  0.76748  1.0000
  H   H377      1.0  0.16114  0.87365  0.72636  1.0000
  H   H378      1.0  0.20056  0.89835  0.76748  1.0000
  H   H379      1.0  0.22608  0.92810  0.75567  1.0000
  O   O187      1.0  0.24274  0.95212  0.73510  1.0000
  O   O188      1.0  0.22038  0.93811  0.71178  1.0000
  H   H380      1.0  0.18665  0.90340  0.71455  1.0000
  H   H381      1.0  0.13172  0.81573  0.80599  1.0000
  O   O189      1.0  0.14978  0.82543  0.82931  1.0000
  O   O190      1.0  0.18615  0.86180  0.82931  1.0000
  H   H382      1.0  0.19585  0.87985  0.80599  1.0000
  C   C957      1.0  0.08872  0.79388  0.74692  1.0000
  C   C958      1.0  0.07740  0.78679  0.73511  1.0000
  C   C959      1.0  0.08449  0.79812  0.72329  1.0000
  C   C960      1.0  0.10292  0.81654  0.72329  1.0000
  H   H383      1.0  0.08347  0.78550  0.75567  1.0000
  O   O191      1.0  0.05945  0.76884  0.73511  1.0000
  O   O192      1.0  0.07346  0.79120  0.71179  1.0000
  H   H384      1.0  0.10817  0.82492  0.71455  1.0000
  C   C961      1.0  0.13693  0.30459  0.75869  1.0000
  C   C962      1.0  0.14403  0.30036  0.74688  1.0000
  C   C963      1.0  0.16245  0.30035  0.74688  1.0000
  C   C964      1.0  0.17377  0.30458  0.75868  1.0000
  C   C965      1.0  0.16668  0.30881  0.77050  1.0000
  C   C966      1.0  0.14826  0.30881  0.77051  1.0000
  C   C967      1.0  0.19219  0.30458  0.75868  1.0000
  C   C968      1.0  0.19928  0.30035  0.74687  1.0000
  C   C969      1.0  0.18796  0.29612  0.73505  1.0000
  C   C970      1.0  0.16954  0.29612  0.73506  1.0000
  C   C971      1.0  0.11852  0.30459  0.75869  1.0000
  C   C972      1.0  0.10719  0.30037  0.74688  1.0000
  C   C973      1.0  0.11429  0.29613  0.73506  1.0000
  C   C974      1.0  0.13271  0.29613  0.73506  1.0000
  C   C975      1.0  0.14116  0.31305  0.78233  1.0000
  C   C976      1.0  0.15249  0.31727  0.79414  1.0000
  C   C977      1.0  0.17090  0.31727  0.79413  1.0000
  C   C978      1.0  0.17800  0.31304  0.78232  1.0000
  C   C979      1.0  0.18223  0.32149  0.80595  1.0000
  C   C980      1.0  0.17513  0.32573  0.81777  1.0000
  C   C981      1.0  0.15672  0.32573  0.81777  1.0000
  C   C982      1.0  0.14539  0.32150  0.80596  1.0000
  C   C983      1.0  0.19505  0.29189  0.72323  1.0000
  C   C984      1.0  0.21347  0.29189  0.72323  1.0000
  C   C985      1.0  0.22480  0.29611  0.73505  1.0000
  C   C986      1.0  0.21770  0.30034  0.74687  1.0000
  H   H385      1.0  0.20057  0.30771  0.76743  1.0000
  H   H386      1.0  0.16116  0.29300  0.72631  1.0000
  H   H387      1.0  0.11327  0.30772  0.76745  1.0000
  H   H388      1.0  0.13796  0.29300  0.72631  1.0000
  H   H389      1.0  0.12753  0.31305  0.78233  1.0000
  H   H390      1.0  0.19163  0.31304  0.78232  1.0000
  H   H391      1.0  0.19586  0.32149  0.80595  1.0000
  O   O193      1.0  0.18616  0.32984  0.82928  1.0000
  O   O194      1.0  0.14981  0.32985  0.82928  1.0000
  H   H392      1.0  0.13176  0.32150  0.80596  1.0000
  H   H393      1.0  0.18667  0.28876  0.71449  1.0000
  O   O195      1.0  0.22038  0.28777  0.71172  1.0000
  O   O196      1.0  0.24274  0.29611  0.73505  1.0000
  H   H394      1.0  0.22608  0.30347  0.75561  1.0000
  C   C987      1.0  0.10297  0.29191  0.72325  1.0000
  C   C988      1.0  0.08455  0.29191  0.72325  1.0000
  C   C989      1.0  0.07745  0.29614  0.73507  1.0000
  C   C990      1.0  0.08878  0.30037  0.74689  1.0000
  H   H395      1.0  0.10822  0.28878  0.71450  1.0000
  O   O197      1.0  0.07352  0.28779  0.71174  1.0000
  O   O198      1.0  0.05951  0.29614  0.73507  1.0000
  H   H396      1.0  0.08352  0.30350  0.75563  1.0000
  C   C991      1.0  0.50468  0.04005  0.58984  1.0000
  C   C992      1.0  0.51600  0.04427  0.60165  1.0000
  C   C993      1.0  0.53442  0.04427  0.60165  1.0000
  C   C994      1.0  0.54152  0.04004  0.58984  1.0000
  C   C995      1.0  0.53020  0.03582  0.57802  1.0000
  C   C996      1.0  0.51178  0.03582  0.57802  1.0000
  C   C997      1.0  0.55994  0.04004  0.58983  1.0000
  C   C998      1.0  0.57126  0.04426  0.60164  1.0000
  C   C999      1.0  0.56416  0.04849  0.61346  1.0000
  C   C1000     1.0  0.54575  0.04849  0.61347  1.0000
  C   C1001     1.0  0.48626  0.04005  0.58985  1.0000
  C   C1002     1.0  0.47917  0.04427  0.60166  1.0000
  C   C1003     1.0  0.49049  0.04850  0.61348  1.0000
  C   C1004     1.0  0.50891  0.04849  0.61347  1.0000
  C   C1005     1.0  0.50046  0.03160  0.56620  1.0000
  C   C1006     1.0  0.50755  0.02737  0.55439  1.0000
  C   C1007     1.0  0.52597  0.02737  0.55439  1.0000
  C   C1008     1.0  0.53729  0.03159  0.56620  1.0000
  C   C1009     1.0  0.53307  0.02315  0.54257  1.0000
  C   C1010     1.0  0.52174  0.01892  0.53075  1.0000
  C   C1011     1.0  0.50333  0.01892  0.53075  1.0000
  C   C1012     1.0  0.49623  0.02315  0.54257  1.0000
  C   C1013     1.0  0.57549  0.05271  0.62528  1.0000
  C   C1014     1.0  0.59391  0.05271  0.62528  1.0000
  C   C1015     1.0  0.60100  0.04848  0.61346  1.0000
  C   C1016     1.0  0.58968  0.04426  0.60164  1.0000
  H   H397      1.0  0.56519  0.03691  0.58108  1.0000
  H   H398      1.0  0.54049  0.05162  0.62221  1.0000
  H   H399      1.0  0.47788  0.03692  0.58109  1.0000
  H   H400      1.0  0.51729  0.05162  0.62222  1.0000
  H   H401      1.0  0.48682  0.03160  0.56621  1.0000
  H   H402      1.0  0.55093  0.03159  0.56619  1.0000
  H   H403      1.0  0.54670  0.02315  0.54256  1.0000
  O   O199      1.0  0.52866  0.01481  0.51924  1.0000
  O   O200      1.0  0.49230  0.01481  0.51925  1.0000
  H   H404      1.0  0.48260  0.02315  0.54258  1.0000
  H   H405      1.0  0.57023  0.05584  0.63403  1.0000
  O   O201      1.0  0.60493  0.05682  0.63678  1.0000
  O   O202      1.0  0.61894  0.04848  0.61345  1.0000
  H   H406      1.0  0.59493  0.04113  0.59289  1.0000
  C   C1017     1.0  0.48339  0.05272  0.62530  1.0000
  C   C1018     1.0  0.46498  0.05273  0.62530  1.0000
  C   C1019     1.0  0.45365  0.04850  0.61349  1.0000
  C   C1020     1.0  0.46075  0.04428  0.60166  1.0000
  H   H407      1.0  0.49178  0.05585  0.63404  1.0000
  O   O203      1.0  0.45806  0.05684  0.63681  1.0000
  O   O204      1.0  0.43571  0.04850  0.61349  1.0000
  H   H408      1.0  0.45237  0.04115  0.59292  1.0000
  C   C1021     1.0  0.96727  0.49556  0.60167  1.0000
  C   C1022     1.0  0.97150  0.50688  0.58986  1.0000
  C   C1023     1.0  0.97572  0.49978  0.57804  1.0000
  C   C1024     1.0  0.97573  0.48137  0.57803  1.0000
  C   C1025     1.0  0.97150  0.47004  0.58985  1.0000
  C   C1026     1.0  0.96727  0.47714  0.60167  1.0000
  C   C1027     1.0  0.97995  0.47427  0.56622  1.0000
  C   C1028     1.0  0.98418  0.48559  0.55440  1.0000
  C   C1029     1.0  0.98418  0.50401  0.55440  1.0000
  C   C1030     1.0  0.97995  0.51111  0.56622  1.0000
  C   C1031     1.0  0.96305  0.50266  0.61349  1.0000
  C   C1032     1.0  0.96304  0.52107  0.61349  1.0000
  C   C1033     1.0  0.96727  0.53240  0.60167  1.0000
  C   C1034     1.0  0.97150  0.52530  0.58986  1.0000
  C   C1035     1.0  0.96305  0.46582  0.61348  1.0000
  C   C1036     1.0  0.96305  0.44740  0.61348  1.0000
  C   C1037     1.0  0.96728  0.44031  0.60166  1.0000
  C   C1038     1.0  0.97150  0.45162  0.58985  1.0000
  C   C1039     1.0  0.96728  0.42188  0.60166  1.0000
  C   C1040     1.0  0.96305  0.41056  0.61348  1.0000
  C   C1041     1.0  0.95883  0.41766  0.62529  1.0000
  C   C1042     1.0  0.95883  0.43608  0.62529  1.0000
  C   C1043     1.0  0.98840  0.51533  0.54259  1.0000
  C   C1044     1.0  0.99263  0.50824  0.53077  1.0000
  C   C1045     1.0  0.99263  0.48981  0.53077  1.0000
  C   C1046     1.0  0.98840  0.47849  0.54259  1.0000
  H   H409      1.0  0.97995  0.46063  0.56622  1.0000
  H   H410      1.0  0.97995  0.52474  0.56623  1.0000
  H   H411      1.0  0.95992  0.49427  0.62224  1.0000
  H   H412      1.0  0.97462  0.53368  0.58111  1.0000
  H   H413      1.0  0.95992  0.47107  0.62223  1.0000
  H   H414      1.0  0.97463  0.44637  0.58110  1.0000
  H   H415      1.0  0.97041  0.41663  0.59291  1.0000
  O   O205      1.0  0.96306  0.39262  0.61347  1.0000
  O   O206      1.0  0.95471  0.40663  0.63680  1.0000
  H   H416      1.0  0.95570  0.44133  0.63404  1.0000
  H   H417      1.0  0.98840  0.52897  0.54259  1.0000
  O   O207      1.0  0.99674  0.51926  0.51926  1.0000
  O   O208      1.0  0.99675  0.48290  0.51926  1.0000
  H   H418      1.0  0.98841  0.46486  0.54258  1.0000
  C   C1047     1.0  0.96727  0.55082  0.60168  1.0000
  C   C1048     1.0  0.96304  0.55792  0.61349  1.0000
  C   C1049     1.0  0.95882  0.54659  0.62531  1.0000
  C   C1050     1.0  0.95882  0.52817  0.62531  1.0000
  H   H419      1.0  0.97040  0.55920  0.59293  1.0000
  O   O209      1.0  0.96304  0.57586  0.61350  1.0000
  O   O210      1.0  0.95470  0.55351  0.63682  1.0000
  H   H420      1.0  0.95569  0.51979  0.63405  1.0000
  C   C1051     1.0  0.51606  0.47704  0.60163  1.0000
  C   C1052     1.0  0.50474  0.46995  0.58982  1.0000
  C   C1053     1.0  0.51184  0.48128  0.57800  1.0000
  C   C1054     1.0  0.53025  0.49970  0.57800  1.0000
  C   C1055     1.0  0.54158  0.50679  0.58982  1.0000
  C   C1056     1.0  0.53449  0.49546  0.60163  1.0000
  C   C1057     1.0  0.53735  0.51103  0.56619  1.0000
  C   C1058     1.0  0.52603  0.50394  0.55438  1.0000
  C   C1059     1.0  0.50760  0.48551  0.55438  1.0000
  C   C1060     1.0  0.50051  0.47418  0.56619  1.0000
  C   C1061     1.0  0.50896  0.46571  0.61344  1.0000
  C   C1062     1.0  0.49055  0.44729  0.61344  1.0000
  C   C1063     1.0  0.47922  0.44020  0.60163  1.0000
  C   C1064     1.0  0.48631  0.45152  0.58981  1.0000
  C   C1065     1.0  0.54582  0.50256  0.61345  1.0000
  C   C1066     1.0  0.56423  0.52098  0.61345  1.0000
  C   C1067     1.0  0.57133  0.53231  0.60163  1.0000
  C   C1068     1.0  0.56001  0.52522  0.58982  1.0000
  C   C1069     1.0  0.58976  0.55073  0.60164  1.0000
  C   C1070     1.0  0.60109  0.55783  0.61345  1.0000
  C   C1071     1.0  0.59399  0.54650  0.62526  1.0000
  C   C1072     1.0  0.57557  0.52807  0.62526  1.0000
  C   C1073     1.0  0.49627  0.47842  0.54256  1.0000
  C   C1074     1.0  0.50337  0.48975  0.53075  1.0000
  C   C1075     1.0  0.52179  0.50817  0.53075  1.0000
  C   C1076     1.0  0.53312  0.51527  0.54257  1.0000
  H   H421      1.0  0.55099  0.52467  0.56619  1.0000
  H   H422      1.0  0.48687  0.46055  0.56619  1.0000
  H   H423      1.0  0.51736  0.47097  0.62219  1.0000
  H   H424      1.0  0.47793  0.44628  0.58107  1.0000
  H   H425      1.0  0.54057  0.49417  0.62219  1.0000
  H   H426      1.0  0.56526  0.53361  0.58108  1.0000
  H   H427      1.0  0.59501  0.55912  0.59289  1.0000
  O   O211      1.0  0.61903  0.57577  0.61345  1.0000
  O   O212      1.0  0.60503  0.55341  0.63677  1.0000
  H   H428      1.0  0.57031  0.51969  0.63401  1.0000
  H   H429      1.0  0.48263  0.46478  0.54256  1.0000
  O   O213      1.0  0.49233  0.48284  0.51924  1.0000
  O   O214      1.0  0.52870  0.51921  0.51924  1.0000
  H   H430      1.0  0.54676  0.52890  0.54257  1.0000
  C   C1077     1.0  0.46079  0.42177  0.60162  1.0000
  C   C1078     1.0  0.45369  0.41044  0.61344  1.0000
  C   C1079     1.0  0.46503  0.41754  0.62525  1.0000
  C   C1080     1.0  0.48345  0.43596  0.62526  1.0000
  H   H431      1.0  0.45241  0.41652  0.59288  1.0000
  O   O215      1.0  0.43575  0.39250  0.61344  1.0000
  O   O216      1.0  0.45811  0.40650  0.63676  1.0000
  H   H432      1.0  0.49184  0.44121  0.63400  1.0000
  Cu  Cu1       1.0  0.33924  0.17236  0.17427  1.0000
  Cu  Cu2       1.0  0.83925  0.17236  0.17426  1.0000
  Cu  Cu3       1.0  0.83923  0.67233  0.17428  1.0000
  Cu  Cu4       1.0  0.17258  0.33901  0.84093  1.0000
  Cu  Cu5       1.0  0.67256  0.83902  0.84093  1.0000
  Cu  Cu6       1.0  0.17258  0.83901  0.84094  1.0000
  Cu  Cu7       1.0  0.00591  0.50567  0.50761  1.0000
  Cu  Cu8       1.0  0.50590  0.50565  0.50761  1.0000
  Cu  Cu9       1.0  0.50590  0.00566  0.50758  1.0000
  Cu  Cu10      1.0  0.50593  0.00572  0.00759  1.0000
  Cu  Cu11      1.0  0.00593  0.50571  0.00761  1.0000
  Cu  Cu12      1.0  0.50593  0.50572  0.00760  1.0000
  Cu  Cu13      1.0  0.17256  0.33901  0.34094  1.0000
  Cu  Cu14      1.0  0.67256  0.83900  0.34093  1.0000
  Cu  Cu15      1.0  0.17256  0.83901  0.34094  1.0000
  Cu  Cu16      1.0  0.83924  0.67232  0.67429  1.0000
  Cu  Cu17      1.0  0.33923  0.17231  0.67427  1.0000
  Cu  Cu18      1.0  0.83924  0.17232  0.67425  1.0000
  Zn  Zn1       1.0  0.29293  0.91275  0.96505  1.0000
  Zn  Zn2       1.0  0.09887  0.38560  0.96511  1.0000
  Zn  Zn3       1.0  0.62606  0.71877  0.96509  1.0000
  Zn  Zn4       1.0  0.91300  0.29272  0.05017  1.0000
  Zn  Zn5       1.0  0.71897  0.62586  0.05012  1.0000
  Zn  Zn6       1.0  0.38581  0.09864  0.05010  1.0000
  Zn  Zn7       1.0  0.71893  0.09868  0.05014  1.0000
  Zn  Zn8       1.0  0.91298  0.62582  0.05010  1.0000
  Zn  Zn9       1.0  0.38579  0.29266  0.05012  1.0000
  Zn  Zn10      1.0  0.09886  0.71869  0.96505  1.0000
  Zn  Zn11      1.0  0.29288  0.38557  0.96508  1.0000
  Zn  Zn12      1.0  0.62604  0.91279  0.96509  1.0000
  Zn  Zn13      1.0  0.95957  0.24605  0.29838  1.0000
  Zn  Zn14      1.0  0.76550  0.71887  0.29847  1.0000
  Zn  Zn15      1.0  0.29269  0.05206  0.29841  1.0000
  Zn  Zn16      1.0  0.57962  0.62602  0.38352  1.0000
  Zn  Zn17      1.0  0.38562  0.95916  0.38343  1.0000
  Zn  Zn18      1.0  0.05245  0.43193  0.38344  1.0000
  Zn  Zn19      1.0  0.38554  0.43197  0.38350  1.0000
  Zn  Zn20      1.0  0.57962  0.95912  0.38339  1.0000
  Zn  Zn21      1.0  0.05243  0.62596  0.38346  1.0000
  Zn  Zn22      1.0  0.76550  0.05198  0.29835  1.0000
  Zn  Zn23      1.0  0.95950  0.71884  0.29843  1.0000
  Zn  Zn24      1.0  0.29267  0.24608  0.29844  1.0000
  Zn  Zn25      1.0  0.62625  0.57934  0.63173  1.0000
  Zn  Zn26      1.0  0.43218  0.05220  0.63178  1.0000
  Zn  Zn27      1.0  0.95938  0.38539  0.63176  1.0000
  Zn  Zn28      1.0  0.24631  0.95933  0.71684  1.0000
  Zn  Zn29      1.0  0.05228  0.29247  0.71679  1.0000
  Zn  Zn30      1.0  0.71911  0.76524  0.71678  1.0000
  Zn  Zn31      1.0  0.05224  0.76528  0.71683  1.0000
  Zn  Zn32      1.0  0.24628  0.29242  0.71676  1.0000
  Zn  Zn33      1.0  0.71910  0.95926  0.71676  1.0000
  Zn  Zn34      1.0  0.43217  0.38528  0.63171  1.0000
  Zn  Zn35      1.0  0.62619  0.05216  0.63173  1.0000
  Zn  Zn36      1.0  0.95935  0.57940  0.63178  1.0000
