data_image0
_chemical_formula_structural       C7NCNCNC3NCNC11NCNC7NHO2H2O2H2O2H2O2HNiC7NCNCNC3NCNC11NCNC7NHO2H2O2H2O2H2O2HNiC7NCNCNC3NCNC11NCNC7NHO2H2O2H2O2H2O2HNiC7NCNCNC3NCNC11NCNC7NHO2H2O2H2O2H2O2HNiC7NCNCNC3NCNC11NCNC7NHO2H2O2H2O2H2O2HNiC7NCNCNC3NCNC11NCNC7NHO2H2O2H2O2H2O2HNiC7NCNCNC3NCNC11NCNC7NHO2H2O2H2O2H2O2HNiC7NCNCNC3NCNC11NCNC7NHO2H2O2H2O2H2O2HNiC7NCNCNC3NCNC11NCNC7NHO2H2O2H2O2H2O2HNiC7NCNCNC3NCNC11NCNC7NHO2H2O2H2O2H2O2HNiC7NCNCNC3NCNC11NCNC7NHO2H2O2H2O2H2O2HNiC7NCNCNC3NCNC11NCNC7NHO2H2O2H2O2H2O2HNiC7NCNCNC3NCNC11NCNC7NHO2H2O2H2O2H2O2HNiC7NCNCNC3NCNC11NCNC7NHO2H2O2H2O2H2O2HNiC7NCNCNC3NCNC11NCNC7NHO2H2O2H2O2H2O2HNiC7NCNCNC3NCNC11NCNC7NHO2H2O2H2O2H2O2HNiC7NCNCNC3NCNC11NCNC7NHO2H2O2H2O2H2O2HNiC7NCNCNC3NCNC11NCNC7NHO2H2O2H2O2H2O2HNiCu12Zn24
_chemical_formula_sum              "C576 N144 H144 O144 Ni18 Cu12 Zn24"
_cell_length_a       57.719
_cell_length_b       57.7196
_cell_length_c       57.7195
_cell_angle_alpha    90.0001
_cell_angle_beta     90.0022
_cell_angle_gamma    90.0051

_space_group_name_H-M_alt    "P 1"
_space_group_IT_number       1

loop_
  _space_group_symop_operation_xyz
  'x, y, z'

loop_
  _atom_site_type_symbol
  _atom_site_label
  _atom_site_symmetry_multiplicity
  _atom_site_fract_x
  _atom_site_fract_y
  _atom_site_fract_z
  _atom_site_occupancy
  C   C1        1.0  0.00010  0.23464  0.36109  1.0000
  C   C2        1.0  0.00010  0.21148  0.34755  1.0000
  C   C3        1.0  0.00010  0.21148  0.32059  1.0000
  C   C4        1.0  0.00010  0.23463  0.30704  1.0000
  C   C5        1.0  0.00010  0.25709  0.32117  1.0000
  C   C6        1.0  0.00010  0.25709  0.34695  1.0000
  C   C7        1.0  0.00010  0.28233  0.35501  1.0000
  N   N1        1.0  0.00010  0.29865  0.33406  1.0000
  C   C8        1.0  0.00010  0.28232  0.31311  1.0000
  N   N2        1.0  0.00010  0.28870  0.28840  1.0000
  C   C9        1.0  0.00010  0.31341  0.28202  1.0000
  N   N3        1.0  0.00010  0.33436  0.29835  1.0000
  C   C10       1.0  0.00010  0.35531  0.28203  1.0000
  C   C11       1.0  0.00010  0.34726  0.25679  1.0000
  C   C12       1.0  0.00010  0.32147  0.25678  1.0000
  N   N4        1.0  0.00010  0.37007  0.33406  1.0000
  C   C13       1.0  0.00010  0.38639  0.31311  1.0000
  N   N5        1.0  0.00010  0.38002  0.28840  1.0000
  C   C14       1.0  0.00010  0.41163  0.32117  1.0000
  C   C15       1.0  0.00010  0.41163  0.34695  1.0000
  C   C16       1.0  0.00010  0.38639  0.35501  1.0000
  C   C17       1.0  0.00010  0.30735  0.23432  1.0000
  C   C18       1.0  0.00010  0.32091  0.21118  1.0000
  C   C19       1.0  0.00010  0.34787  0.21119  1.0000
  C   C20       1.0  0.00010  0.36140  0.23434  1.0000
  C   C21       1.0  0.00010  0.43408  0.36108  1.0000
  C   C22       1.0  0.00010  0.45723  0.34754  1.0000
  C   C23       1.0  0.00010  0.45723  0.32059  1.0000
  C   C24       1.0  0.00010  0.43409  0.30704  1.0000
  N   N6        1.0  0.00010  0.33436  0.36976  1.0000
  C   C25       1.0  0.00010  0.35531  0.38609  1.0000
  N   N7        1.0  0.00010  0.38001  0.37971  1.0000
  C   C26       1.0  0.00010  0.34725  0.41132  1.0000
  C   C27       1.0  0.00010  0.32147  0.41133  1.0000
  C   C28       1.0  0.00010  0.31341  0.38609  1.0000
  C   C29       1.0  0.00010  0.30735  0.43379  1.0000
  C   C30       1.0  0.00010  0.32090  0.45693  1.0000
  C   C31       1.0  0.00010  0.34786  0.45692  1.0000
  C   C32       1.0  0.00010  0.36140  0.43377  1.0000
  N   N8        1.0  0.00010  0.28870  0.37971  1.0000
  H   H1        1.0  0.00010  0.23493  0.37928  1.0000
  O   O1        1.0  0.00010  0.19195  0.35875  1.0000
  O   O2        1.0  0.00010  0.19194  0.30939  1.0000
  H   H2        1.0  0.00010  0.23493  0.28885  1.0000
  H   H3        1.0  0.00010  0.28916  0.23461  1.0000
  O   O3        1.0  0.00010  0.30972  0.19163  1.0000
  O   O4        1.0  0.00010  0.35908  0.19166  1.0000
  H   H4        1.0  0.00010  0.37959  0.23465  1.0000
  H   H5        1.0  0.00010  0.43378  0.37927  1.0000
  O   O5        1.0  0.00010  0.47676  0.35875  1.0000
  O   O6        1.0  0.00010  0.47677  0.30939  1.0000
  H   H6        1.0  0.00010  0.43379  0.28885  1.0000
  H   H7        1.0  0.00010  0.28916  0.43349  1.0000
  O   O7        1.0  0.00010  0.30970  0.47647  1.0000
  O   O8        1.0  0.00010  0.35907  0.47646  1.0000
  H   H8        1.0  0.00010  0.37958  0.43346  1.0000
  Ni  Ni1       1.0  0.00010  0.33435  0.33406  1.0000
  C   C33       1.0  0.64004  0.00010  0.23432  1.0000
  C   C34       1.0  0.65358  0.00010  0.21117  1.0000
  C   C35       1.0  0.68054  0.00010  0.21117  1.0000
  C   C36       1.0  0.69409  0.00010  0.23432  1.0000
  C   C37       1.0  0.67996  0.00010  0.25677  1.0000
  C   C38       1.0  0.65417  0.00010  0.25677  1.0000
  C   C39       1.0  0.64612  0.00010  0.28201  1.0000
  N   N9        1.0  0.66707  0.00010  0.29833  1.0000
  C   C40       1.0  0.68802  0.00010  0.28201  1.0000
  N   N10       1.0  0.71273  0.00102  0.28839  1.0000
  C   C41       1.0  0.71910  0.00100  0.31310  1.0000
  N   N11       1.0  0.70278  0.00010  0.33404  1.0000
  C   C42       1.0  0.71910  0.00010  0.35499  1.0000
  C   C43       1.0  0.74434  0.00010  0.34694  1.0000
  C   C44       1.0  0.74434  0.00102  0.32116  1.0000
  N   N12       1.0  0.66707  0.00010  0.36975  1.0000
  C   C45       1.0  0.68802  0.00010  0.38608  1.0000
  N   N13       1.0  0.71273  0.00010  0.37970  1.0000
  C   C46       1.0  0.67996  0.00010  0.41131  1.0000
  C   C47       1.0  0.65418  0.00010  0.41131  1.0000
  C   C48       1.0  0.64612  0.00010  0.38607  1.0000
  C   C49       1.0  0.76681  0.00106  0.30704  1.0000
  C   C50       1.0  0.78995  0.00105  0.32060  1.0000
  C   C51       1.0  0.78994  0.00103  0.34755  1.0000
  C   C52       1.0  0.76678  0.00010  0.36109  1.0000
  C   C53       1.0  0.64004  0.00010  0.43376  1.0000
  C   C54       1.0  0.65358  0.00010  0.45691  1.0000
  C   C55       1.0  0.68054  0.00010  0.45692  1.0000
  C   C56       1.0  0.69409  0.00010  0.43377  1.0000
  N   N14       1.0  0.63136  0.00010  0.33404  1.0000
  C   C57       1.0  0.61504  0.00102  0.35499  1.0000
  N   N15       1.0  0.62141  0.00110  0.37970  1.0000
  C   C58       1.0  0.58980  0.00102  0.34694  1.0000
  C   C59       1.0  0.58980  0.00010  0.32115  1.0000
  C   C60       1.0  0.61504  0.00010  0.31309  1.0000
  C   C61       1.0  0.56734  0.00010  0.30703  1.0000
  C   C62       1.0  0.54419  0.00102  0.32058  1.0000
  C   C63       1.0  0.54420  0.00109  0.34754  1.0000
  C   C64       1.0  0.56736  0.00109  0.36108  1.0000
  N   N16       1.0  0.62141  0.00010  0.28839  1.0000
  H   H9        1.0  0.62185  0.00010  0.23462  1.0000
  O   O9        1.0  0.64237  0.00010  0.19163  1.0000
  O   O10       1.0  0.69174  0.00010  0.19162  1.0000
  H   H10       1.0  0.71227  0.00010  0.23461  1.0000
  H   H11       1.0  0.76652  0.00108  0.28885  1.0000
  O   O11       1.0  0.80949  0.00106  0.30940  1.0000
  O   O12       1.0  0.80947  0.00107  0.35877  1.0000
  H   H12       1.0  0.76648  0.00010  0.37927  1.0000
  H   H13       1.0  0.62185  0.00106  0.43346  1.0000
  O   O13       1.0  0.64238  0.00010  0.47645  1.0000
  O   O14       1.0  0.69174  0.00010  0.47646  1.0000
  H   H14       1.0  0.71228  0.00010  0.43348  1.0000
  H   H15       1.0  0.56763  0.00010  0.28884  1.0000
  O   O15       1.0  0.52465  0.00106  0.30938  1.0000
  O   O16       1.0  0.52467  0.00114  0.35875  1.0000
  H   H16       1.0  0.56766  0.00115  0.37927  1.0000
  Ni  Ni2       1.0  0.66707  0.00010  0.33404  1.0000
  C   C65       1.0  0.00010  0.76740  0.36109  1.0000
  C   C66       1.0  0.00010  0.79055  0.34755  1.0000
  C   C67       1.0  0.00010  0.79056  0.32059  1.0000
  C   C68       1.0  0.00010  0.76740  0.30704  1.0000
  C   C69       1.0  0.00010  0.74495  0.32117  1.0000
  C   C70       1.0  0.00010  0.74495  0.34695  1.0000
  C   C71       1.0  0.00010  0.71971  0.35500  1.0000
  N   N17       1.0  0.00010  0.70339  0.33406  1.0000
  C   C72       1.0  0.00010  0.71971  0.31311  1.0000
  N   N18       1.0  0.00010  0.71334  0.28840  1.0000
  C   C73       1.0  0.00010  0.68863  0.28202  1.0000
  N   N19       1.0  0.00010  0.66768  0.29835  1.0000
  C   C74       1.0  0.00010  0.64673  0.28202  1.0000
  C   C75       1.0  0.00010  0.65478  0.25679  1.0000
  C   C76       1.0  0.00010  0.68056  0.25678  1.0000
  N   N20       1.0  0.00010  0.63197  0.33405  1.0000
  C   C77       1.0  0.00010  0.61564  0.31311  1.0000
  N   N21       1.0  0.00010  0.62202  0.28840  1.0000
  C   C78       1.0  0.00010  0.59041  0.32116  1.0000
  C   C79       1.0  0.00010  0.59041  0.34695  1.0000
  C   C80       1.0  0.00010  0.61565  0.35500  1.0000
  C   C81       1.0  0.00010  0.69468  0.23432  1.0000
  C   C82       1.0  0.00010  0.68113  0.21117  1.0000
  C   C83       1.0  0.00010  0.65417  0.21119  1.0000
  C   C84       1.0  0.00010  0.64064  0.23434  1.0000
  C   C85       1.0  0.00010  0.56796  0.36108  1.0000
  C   C86       1.0  0.00010  0.54481  0.34754  1.0000
  C   C87       1.0  0.00010  0.54481  0.32058  1.0000
  C   C88       1.0  0.00010  0.56795  0.30704  1.0000
  N   N22       1.0  0.00010  0.66768  0.36976  1.0000
  C   C89       1.0  0.00010  0.64673  0.38608  1.0000
  N   N23       1.0  0.00010  0.62202  0.37971  1.0000
  C   C90       1.0  0.00010  0.65478  0.41132  1.0000
  C   C91       1.0  0.00010  0.68056  0.41132  1.0000
  C   C92       1.0  0.00010  0.68862  0.38609  1.0000
  C   C93       1.0  0.00010  0.69469  0.43378  1.0000
  C   C94       1.0  0.00010  0.68113  0.45693  1.0000
  C   C95       1.0  0.00010  0.65418  0.45692  1.0000
  C   C96       1.0  0.00010  0.64064  0.43377  1.0000
  N   N24       1.0  0.00010  0.71333  0.37971  1.0000
  H   H17       1.0  0.00010  0.76710  0.37928  1.0000
  O   O17       1.0  0.00010  0.81009  0.35875  1.0000
  O   O18       1.0  0.00010  0.81010  0.30939  1.0000
  H   H18       1.0  0.00010  0.76711  0.28885  1.0000
  H   H19       1.0  0.00010  0.71287  0.23460  1.0000
  O   O19       1.0  0.00010  0.69232  0.19163  1.0000
  O   O20       1.0  0.00010  0.64296  0.19165  1.0000
  H   H20       1.0  0.00010  0.62245  0.23465  1.0000
  H   H21       1.0  0.00010  0.56825  0.37927  1.0000
  O   O21       1.0  0.00010  0.52527  0.35875  1.0000
  O   O22       1.0  0.00010  0.52527  0.30938  1.0000
  H   H22       1.0  0.00010  0.56824  0.28885  1.0000
  H   H23       1.0  0.00010  0.71288  0.43349  1.0000
  O   O23       1.0  0.00010  0.69233  0.47647  1.0000
  O   O24       1.0  0.00010  0.64297  0.47645  1.0000
  H   H24       1.0  0.00010  0.62245  0.43346  1.0000
  Ni  Ni3       1.0  0.00010  0.66768  0.33405  1.0000
  C   C97       1.0  0.36076  0.00133  0.23431  1.0000
  C   C98       1.0  0.34722  0.00127  0.21116  1.0000
  C   C99       1.0  0.32026  0.00119  0.21116  1.0000
  C   C100      1.0  0.30671  0.00115  0.23431  1.0000
  C   C101      1.0  0.32084  0.00120  0.25676  1.0000
  C   C102      1.0  0.34662  0.00130  0.25677  1.0000
  C   C103      1.0  0.35468  0.00134  0.28200  1.0000
  N   N25       1.0  0.33373  0.00126  0.29832  1.0000
  C   C104      1.0  0.31278  0.00118  0.28200  1.0000
  N   N26       1.0  0.28807  0.00107  0.28838  1.0000
  C   C105      1.0  0.28169  0.00109  0.31308  1.0000
  N   N27       1.0  0.29802  0.00117  0.33403  1.0000
  C   C106      1.0  0.28170  0.00121  0.35498  1.0000
  C   C107      1.0  0.25646  0.00114  0.34693  1.0000
  C   C108      1.0  0.25646  0.00107  0.32115  1.0000
  N   N28       1.0  0.33373  0.00122  0.36974  1.0000
  C   C109      1.0  0.31278  0.00130  0.38607  1.0000
  N   N29       1.0  0.28808  0.00133  0.37969  1.0000
  C   C110      1.0  0.32084  0.00125  0.41131  1.0000
  C   C111      1.0  0.34663  0.00115  0.41130  1.0000
  C   C112      1.0  0.35468  0.00112  0.38607  1.0000
  C   C113      1.0  0.23399  0.00103  0.30703  1.0000
  C   C114      1.0  0.21085  0.00104  0.32058  1.0000
  C   C115      1.0  0.21086  0.00106  0.34754  1.0000
  C   C116      1.0  0.23402  0.00113  0.36107  1.0000
  C   C117      1.0  0.36076  0.00111  0.43376  1.0000
  C   C118      1.0  0.34722  0.00119  0.45691  1.0000
  C   C119      1.0  0.32026  0.00127  0.45691  1.0000
  C   C120      1.0  0.30671  0.00130  0.43376  1.0000
  N   N30       1.0  0.36944  0.00119  0.33403  1.0000
  C   C121      1.0  0.38576  0.00108  0.35498  1.0000
  N   N31       1.0  0.37939  0.00101  0.37969  1.0000
  C   C122      1.0  0.41100  0.00109  0.34693  1.0000
  C   C123      1.0  0.41100  0.00120  0.32115  1.0000
  C   C124      1.0  0.38576  0.00127  0.31309  1.0000
  C   C125      1.0  0.43346  0.00119  0.30702  1.0000
  C   C126      1.0  0.45661  0.00108  0.32058  1.0000
  C   C127      1.0  0.45660  0.00102  0.34754  1.0000
  C   C128      1.0  0.43344  0.00101  0.36107  1.0000
  N   N32       1.0  0.37939  0.00139  0.28838  1.0000
  H   H25       1.0  0.37895  0.00138  0.23461  1.0000
  O   O25       1.0  0.35843  0.00128  0.19162  1.0000
  O   O26       1.0  0.30906  0.00115  0.19162  1.0000
  H   H26       1.0  0.28852  0.00109  0.23460  1.0000
  H   H27       1.0  0.23428  0.00101  0.28884  1.0000
  O   O27       1.0  0.19131  0.00103  0.30939  1.0000
  O   O28       1.0  0.19133  0.00103  0.35875  1.0000
  H   H28       1.0  0.23432  0.00116  0.37926  1.0000
  H   H29       1.0  0.37895  0.00105  0.43346  1.0000
  O   O29       1.0  0.35843  0.00120  0.47644  1.0000
  O   O30       1.0  0.30906  0.00133  0.47645  1.0000
  H   H30       1.0  0.28853  0.00135  0.43347  1.0000
  H   H31       1.0  0.43317  0.00125  0.28884  1.0000
  O   O31       1.0  0.47615  0.00104  0.30938  1.0000
  O   O32       1.0  0.47613  0.00010  0.35875  1.0000
  H   H32       1.0  0.43314  0.00010  0.37926  1.0000
  Ni  Ni4       1.0  0.33373  0.00125  0.33403  1.0000
  C   C129      1.0  0.00010  0.76741  0.64034  1.0000
  C   C130      1.0  0.00010  0.79057  0.65389  1.0000
  C   C131      1.0  0.00010  0.79057  0.68084  1.0000
  C   C132      1.0  0.00010  0.76742  0.69439  1.0000
  C   C133      1.0  0.00010  0.74496  0.68026  1.0000
  C   C134      1.0  0.00010  0.74496  0.65448  1.0000
  C   C135      1.0  0.00010  0.71972  0.64643  1.0000
  N   N33       1.0  0.00010  0.70340  0.66738  1.0000
  C   C136      1.0  0.00010  0.71973  0.68833  1.0000
  N   N34       1.0  0.00010  0.71335  0.71303  1.0000
  C   C137      1.0  0.00010  0.68864  0.71941  1.0000
  N   N35       1.0  0.00010  0.66769  0.70309  1.0000
  C   C138      1.0  0.00010  0.64674  0.71941  1.0000
  C   C139      1.0  0.00010  0.65480  0.74464  1.0000
  C   C140      1.0  0.00010  0.68058  0.74465  1.0000
  N   N36       1.0  0.00010  0.63199  0.66738  1.0000
  C   C141      1.0  0.00010  0.61566  0.68833  1.0000
  N   N37       1.0  0.00010  0.62203  0.71304  1.0000
  C   C142      1.0  0.00010  0.59042  0.68027  1.0000
  C   C143      1.0  0.00010  0.59042  0.65449  1.0000
  C   C144      1.0  0.00010  0.61566  0.64643  1.0000
  C   C145      1.0  0.00010  0.69470  0.76711  1.0000
  C   C146      1.0  0.00010  0.68114  0.79026  1.0000
  C   C147      1.0  0.00010  0.65419  0.79025  1.0000
  C   C148      1.0  0.00010  0.64065  0.76709  1.0000
  C   C149      1.0  0.00010  0.56797  0.64035  1.0000
  C   C150      1.0  0.00010  0.54482  0.65389  1.0000
  C   C151      1.0  0.00010  0.54482  0.68085  1.0000
  C   C152      1.0  0.00010  0.56796  0.69440  1.0000
  N   N38       1.0  0.00010  0.66769  0.63167  1.0000
  C   C153      1.0  0.00010  0.64674  0.61535  1.0000
  N   N39       1.0  0.00010  0.62204  0.62173  1.0000
  C   C154      1.0  0.00010  0.65479  0.59012  1.0000
  C   C155      1.0  0.00010  0.68058  0.59011  1.0000
  C   C156      1.0  0.00010  0.68864  0.61535  1.0000
  C   C157      1.0  0.00010  0.69470  0.56765  1.0000
  C   C158      1.0  0.00010  0.68115  0.54450  1.0000
  C   C159      1.0  0.00010  0.65419  0.54451  1.0000
  C   C160      1.0  0.00010  0.64065  0.56767  1.0000
  N   N40       1.0  0.00010  0.71335  0.62172  1.0000
  H   H33       1.0  0.00010  0.76711  0.62216  1.0000
  O   O33       1.0  0.00010  0.81010  0.64268  1.0000
  O   O34       1.0  0.00010  0.81011  0.69204  1.0000
  H   H34       1.0  0.00010  0.76712  0.71258  1.0000
  H   H35       1.0  0.00010  0.71289  0.76683  1.0000
  O   O35       1.0  0.00010  0.69234  0.80980  1.0000
  O   O36       1.0  0.00010  0.64297  0.80978  1.0000
  H   H36       1.0  0.00010  0.62247  0.76679  1.0000
  H   H37       1.0  0.00010  0.56827  0.62217  1.0000
  O   O37       1.0  0.00010  0.52529  0.64269  1.0000
  O   O38       1.0  0.00010  0.52528  0.69206  1.0000
  H   H38       1.0  0.00010  0.56826  0.71259  1.0000
  H   H39       1.0  0.00010  0.71289  0.56794  1.0000
  O   O39       1.0  0.00010  0.69234  0.52496  1.0000
  O   O40       1.0  0.00010  0.64298  0.52498  1.0000
  H   H40       1.0  0.00010  0.62246  0.56797  1.0000
  Ni  Ni5       1.0  0.00010  0.66770  0.66738  1.0000
  C   C161      1.0  0.36077  0.00010  0.76709  1.0000
  C   C162      1.0  0.34723  0.00101  0.79024  1.0000
  C   C163      1.0  0.32027  0.00109  0.79024  1.0000
  C   C164      1.0  0.30672  0.00114  0.76709  1.0000
  C   C165      1.0  0.32085  0.00109  0.74464  1.0000
  C   C166      1.0  0.34663  0.00010  0.74464  1.0000
  C   C167      1.0  0.35469  0.00010  0.71940  1.0000
  N   N41       1.0  0.33374  0.00104  0.70308  1.0000
  C   C168      1.0  0.31279  0.00112  0.71940  1.0000
  N   N42       1.0  0.28808  0.00123  0.71302  1.0000
  C   C169      1.0  0.28170  0.00122  0.68832  1.0000
  N   N43       1.0  0.29803  0.00114  0.66737  1.0000
  C   C170      1.0  0.28170  0.00111  0.64642  1.0000
  C   C171      1.0  0.25647  0.00119  0.65447  1.0000
  C   C172      1.0  0.25646  0.00125  0.68025  1.0000
  N   N44       1.0  0.33373  0.00109  0.63166  1.0000
  C   C173      1.0  0.31279  0.00103  0.61533  1.0000
  N   N45       1.0  0.28808  0.00010  0.62171  1.0000
  C   C174      1.0  0.32084  0.00107  0.59010  1.0000
  C   C175      1.0  0.34663  0.00117  0.59010  1.0000
  C   C176      1.0  0.35468  0.00120  0.61534  1.0000
  C   C177      1.0  0.23400  0.00128  0.69437  1.0000
  C   C178      1.0  0.21086  0.00128  0.68082  1.0000
  C   C179      1.0  0.21087  0.00127  0.65386  1.0000
  C   C180      1.0  0.23402  0.00120  0.64033  1.0000
  C   C181      1.0  0.36076  0.00121  0.56765  1.0000
  C   C182      1.0  0.34722  0.00114  0.54450  1.0000
  C   C183      1.0  0.32026  0.00107  0.54449  1.0000
  C   C184      1.0  0.30671  0.00104  0.56764  1.0000
  N   N46       1.0  0.36944  0.00111  0.66737  1.0000
  C   C185      1.0  0.38576  0.00122  0.64642  1.0000
  N   N47       1.0  0.37939  0.00130  0.62171  1.0000
  C   C186      1.0  0.41100  0.00121  0.65447  1.0000
  C   C187      1.0  0.41101  0.00109  0.68025  1.0000
  C   C188      1.0  0.38577  0.00102  0.68831  1.0000
  C   C189      1.0  0.43347  0.00109  0.69438  1.0000
  C   C190      1.0  0.45661  0.00120  0.68083  1.0000
  C   C191      1.0  0.45660  0.00127  0.65387  1.0000
  C   C192      1.0  0.43345  0.00128  0.64033  1.0000
  N   N48       1.0  0.37939  0.00010  0.71302  1.0000
  H   H41       1.0  0.37896  0.00010  0.76679  1.0000
  O   O41       1.0  0.35844  0.00010  0.80978  1.0000
  O   O42       1.0  0.30907  0.00113  0.80979  1.0000
  H   H42       1.0  0.28853  0.00120  0.76680  1.0000
  H   H43       1.0  0.23429  0.00131  0.71256  1.0000
  O   O43       1.0  0.19131  0.00129  0.69201  1.0000
  O   O44       1.0  0.19133  0.00131  0.64264  1.0000
  H   H44       1.0  0.23433  0.00118  0.62214  1.0000
  H   H45       1.0  0.37895  0.00127  0.56794  1.0000
  O   O45       1.0  0.35842  0.00114  0.52496  1.0000
  O   O46       1.0  0.30906  0.00102  0.52495  1.0000
  H   H46       1.0  0.28853  0.00010  0.56793  1.0000
  H   H47       1.0  0.43318  0.00103  0.71257  1.0000
  O   O47       1.0  0.47615  0.00124  0.69202  1.0000
  O   O48       1.0  0.47614  0.00133  0.64266  1.0000
  H   H48       1.0  0.43314  0.00135  0.62214  1.0000
  Ni  Ni6       1.0  0.33374  0.00106  0.66737  1.0000
  C   C193      1.0  0.00010  0.23464  0.64035  1.0000
  C   C194      1.0  0.00010  0.21149  0.65390  1.0000
  C   C195      1.0  0.00010  0.21148  0.68085  1.0000
  C   C196      1.0  0.00010  0.23463  0.69440  1.0000
  C   C197      1.0  0.00010  0.25709  0.68027  1.0000
  C   C198      1.0  0.00010  0.25709  0.65449  1.0000
  C   C199      1.0  0.00010  0.28233  0.64644  1.0000
  N   N49       1.0  0.00010  0.29865  0.66738  1.0000
  C   C200      1.0  0.00010  0.28233  0.68833  1.0000
  N   N50       1.0  0.00010  0.28870  0.71304  1.0000
  C   C201      1.0  0.00010  0.31341  0.71942  1.0000
  N   N51       1.0  0.00010  0.33436  0.70309  1.0000
  C   C202      1.0  0.00010  0.35531  0.71941  1.0000
  C   C203      1.0  0.00010  0.34726  0.74465  1.0000
  C   C204      1.0  0.00010  0.32148  0.74466  1.0000
  N   N52       1.0  0.00010  0.37007  0.66739  1.0000
  C   C205      1.0  0.00010  0.38640  0.68833  1.0000
  N   N53       1.0  0.00010  0.38002  0.71304  1.0000
  C   C206      1.0  0.00010  0.41163  0.68027  1.0000
  C   C207      1.0  0.00010  0.41163  0.65449  1.0000
  C   C208      1.0  0.00010  0.38639  0.64644  1.0000
  C   C209      1.0  0.00010  0.30736  0.76712  1.0000
  C   C210      1.0  0.00010  0.32091  0.79026  1.0000
  C   C211      1.0  0.00010  0.34787  0.79025  1.0000
  C   C212      1.0  0.00010  0.36140  0.76710  1.0000
  C   C213      1.0  0.00010  0.43408  0.64036  1.0000
  C   C214      1.0  0.00010  0.45723  0.65390  1.0000
  C   C215      1.0  0.00010  0.45723  0.68085  1.0000
  C   C216      1.0  0.00010  0.43409  0.69440  1.0000
  N   N54       1.0  0.00010  0.33436  0.63168  1.0000
  C   C217      1.0  0.00010  0.35531  0.61536  1.0000
  N   N55       1.0  0.00010  0.38002  0.62173  1.0000
  C   C218      1.0  0.00010  0.34726  0.59012  1.0000
  C   C219      1.0  0.00010  0.32147  0.59012  1.0000
  C   C220      1.0  0.00010  0.31341  0.61535  1.0000
  C   C221      1.0  0.00010  0.30735  0.56766  1.0000
  C   C222      1.0  0.00010  0.32090  0.54451  1.0000
  C   C223      1.0  0.00010  0.34786  0.54452  1.0000
  C   C224      1.0  0.00010  0.36140  0.56767  1.0000
  N   N56       1.0  0.00010  0.28871  0.62173  1.0000
  H   H49       1.0  0.00010  0.23494  0.62216  1.0000
  O   O49       1.0  0.00010  0.19195  0.64269  1.0000
  O   O50       1.0  0.00010  0.19194  0.69205  1.0000
  H   H50       1.0  0.00010  0.23493  0.71259  1.0000
  H   H51       1.0  0.00010  0.28917  0.76683  1.0000
  O   O51       1.0  0.00010  0.30972  0.80981  1.0000
  O   O52       1.0  0.00010  0.35909  0.80978  1.0000
  H   H52       1.0  0.00010  0.37959  0.76679  1.0000
  H   H53       1.0  0.00010  0.43378  0.62217  1.0000
  O   O53       1.0  0.00010  0.47677  0.64269  1.0000
  O   O54       1.0  0.00010  0.47677  0.69206  1.0000
  H   H54       1.0  0.00010  0.43380  0.71259  1.0000
  H   H55       1.0  0.00010  0.28916  0.56795  1.0000
  O   O55       1.0  0.00010  0.30970  0.52497  1.0000
  O   O56       1.0  0.00010  0.35907  0.52498  1.0000
  H   H56       1.0  0.00010  0.37959  0.56798  1.0000
  Ni  Ni7       1.0  0.00010  0.33436  0.66738  1.0000
  C   C225      1.0  0.64003  0.00123  0.76710  1.0000
  C   C226      1.0  0.65357  0.00118  0.79025  1.0000
  C   C227      1.0  0.68053  0.00109  0.79026  1.0000
  C   C228      1.0  0.69408  0.00104  0.76710  1.0000
  C   C229      1.0  0.67995  0.00110  0.74465  1.0000
  C   C230      1.0  0.65417  0.00120  0.74465  1.0000
  C   C231      1.0  0.64611  0.00123  0.71941  1.0000
  N   N57       1.0  0.66706  0.00115  0.70309  1.0000
  C   C232      1.0  0.68801  0.00106  0.71941  1.0000
  N   N58       1.0  0.71272  0.00010  0.71304  1.0000
  C   C233      1.0  0.71910  0.00010  0.68833  1.0000
  N   N59       1.0  0.70277  0.00104  0.66738  1.0000
  C   C234      1.0  0.71909  0.00107  0.64643  1.0000
  C   C235      1.0  0.74433  0.00010  0.65448  1.0000
  C   C236      1.0  0.74434  0.00010  0.68026  1.0000
  N   N60       1.0  0.66706  0.00109  0.63167  1.0000
  C   C237      1.0  0.68801  0.00115  0.61534  1.0000
  N   N61       1.0  0.71272  0.00118  0.62172  1.0000
  C   C238      1.0  0.67995  0.00111  0.59011  1.0000
  C   C239      1.0  0.65417  0.00101  0.59011  1.0000
  C   C240      1.0  0.64611  0.00010  0.61534  1.0000
  C   C241      1.0  0.76680  0.00010  0.69439  1.0000
  C   C242      1.0  0.78994  0.00010  0.68083  1.0000
  C   C243      1.0  0.78993  0.00010  0.65387  1.0000
  C   C244      1.0  0.76678  0.00010  0.64034  1.0000
  C   C245      1.0  0.64003  0.00010  0.56765  1.0000
  C   C246      1.0  0.65357  0.00104  0.54451  1.0000
  C   C247      1.0  0.68053  0.00112  0.54450  1.0000
  C   C248      1.0  0.69408  0.00114  0.56765  1.0000
  N   N62       1.0  0.63136  0.00108  0.66738  1.0000
  C   C249      1.0  0.61503  0.00010  0.64643  1.0000
  N   N63       1.0  0.62141  0.00010  0.62172  1.0000
  C   C250      1.0  0.58980  0.00010  0.65448  1.0000
  C   C251      1.0  0.58979  0.00110  0.68026  1.0000
  C   C252      1.0  0.61503  0.00117  0.68832  1.0000
  C   C253      1.0  0.56733  0.00110  0.69438  1.0000
  C   C254      1.0  0.54419  0.00100  0.68083  1.0000
  C   C255      1.0  0.54420  0.00010  0.65387  1.0000
  C   C256      1.0  0.56735  0.00010  0.64034  1.0000
  N   N64       1.0  0.62141  0.00129  0.71303  1.0000
  H   H57       1.0  0.62184  0.00129  0.76680  1.0000
  O   O57       1.0  0.64237  0.00120  0.80979  1.0000
  O   O58       1.0  0.69173  0.00106  0.80980  1.0000
  H   H58       1.0  0.71227  0.00010  0.76681  1.0000
  H   H59       1.0  0.76651  0.00010  0.71257  1.0000
  O   O59       1.0  0.80949  0.00010  0.69203  1.0000
  O   O60       1.0  0.80946  0.00010  0.64266  1.0000
  H   H60       1.0  0.76647  0.00010  0.62215  1.0000
  H   H61       1.0  0.62185  0.00010  0.56795  1.0000
  O   O61       1.0  0.64237  0.00105  0.52497  1.0000
  O   O62       1.0  0.69174  0.00116  0.52497  1.0000
  H   H62       1.0  0.71227  0.00119  0.56794  1.0000
  H   H63       1.0  0.56762  0.00117  0.71257  1.0000
  O   O63       1.0  0.52465  0.00010  0.69203  1.0000
  O   O64       1.0  0.52466  0.00010  0.64266  1.0000
  H   H64       1.0  0.56766  0.00010  0.62215  1.0000
  Ni  Ni8       1.0  0.66706  0.00113  0.66738  1.0000
  C   C257      1.0  0.36076  0.23466  0.00010  1.0000
  C   C258      1.0  0.34722  0.21151  0.00010  1.0000
  C   C259      1.0  0.32026  0.21151  0.00010  1.0000
  C   C260      1.0  0.30671  0.23466  0.00010  1.0000
  C   C261      1.0  0.32084  0.25711  0.00010  1.0000
  C   C262      1.0  0.34663  0.25712  0.00010  1.0000
  C   C263      1.0  0.35468  0.28235  0.00010  1.0000
  N   N65       1.0  0.33373  0.29867  0.00010  1.0000
  C   C264      1.0  0.31278  0.28235  0.00010  1.0000
  N   N66       1.0  0.28807  0.28873  0.00010  1.0000
  C   C265      1.0  0.28170  0.31343  0.00010  1.0000
  N   N67       1.0  0.29803  0.33438  0.00010  1.0000
  C   C266      1.0  0.28170  0.35533  0.00010  1.0000
  C   C267      1.0  0.25647  0.34728  0.00010  1.0000
  C   C268      1.0  0.25646  0.32150  0.00010  1.0000
  N   N68       1.0  0.33373  0.37009  0.00010  1.0000
  C   C269      1.0  0.31279  0.38642  0.00010  1.0000
  N   N69       1.0  0.28808  0.38004  0.00010  1.0000
  C   C270      1.0  0.32085  0.41166  0.00010  1.0000
  C   C271      1.0  0.34663  0.41165  0.00010  1.0000
  C   C272      1.0  0.35468  0.38642  0.00010  1.0000
  C   C273      1.0  0.23400  0.30738  0.00010  1.0000
  C   C274      1.0  0.21085  0.32093  0.00010  1.0000
  C   C275      1.0  0.21087  0.34789  0.00010  1.0000
  C   C276      1.0  0.23402  0.36142  0.00010  1.0000
  C   C277      1.0  0.36077  0.43411  0.00010  1.0000
  C   C278      1.0  0.34723  0.45726  0.00010  1.0000
  C   C279      1.0  0.32027  0.45726  0.00010  1.0000
  C   C280      1.0  0.30672  0.43411  0.00010  1.0000
  N   N70       1.0  0.36944  0.33439  0.00010  1.0000
  C   C281      1.0  0.38576  0.35534  0.00010  1.0000
  N   N71       1.0  0.37939  0.38004  0.00010  1.0000
  C   C282      1.0  0.41100  0.34728  0.00010  1.0000
  C   C283      1.0  0.41100  0.32150  0.00010  1.0000
  C   C284      1.0  0.38576  0.31344  0.00010  1.0000
  C   C285      1.0  0.43346  0.30738  0.00010  1.0000
  C   C286      1.0  0.45661  0.32093  0.00010  1.0000
  C   C287      1.0  0.45660  0.34789  0.00010  1.0000
  C   C288      1.0  0.43345  0.36143  0.00010  1.0000
  N   N72       1.0  0.37939  0.28873  0.00010  1.0000
  H   H65       1.0  0.37895  0.23496  0.00010  1.0000
  O   O65       1.0  0.35842  0.19197  0.00010  1.0000
  O   O66       1.0  0.30906  0.19197  0.00010  1.0000
  H   H66       1.0  0.28852  0.23495  0.00010  1.0000
  H   H67       1.0  0.23428  0.28919  0.00010  1.0000
  O   O67       1.0  0.19131  0.30974  0.00010  1.0000
  O   O68       1.0  0.19133  0.35910  0.00010  1.0000
  H   H68       1.0  0.23433  0.37961  0.00010  1.0000
  H   H69       1.0  0.37895  0.43381  0.00010  1.0000
  O   O69       1.0  0.35843  0.47679  0.00010  1.0000
  O   O70       1.0  0.30907  0.47680  0.00010  1.0000
  H   H70       1.0  0.28853  0.43382  0.00010  1.0000
  H   H71       1.0  0.43317  0.28919  0.00010  1.0000
  O   O71       1.0  0.47615  0.30973  0.00010  1.0000
  O   O72       1.0  0.47614  0.35910  0.00010  1.0000
  H   H72       1.0  0.43314  0.37962  0.00010  1.0000
  Ni  Ni9       1.0  0.33373  0.33438  0.00010  1.0000
  C   C289      1.0  0.36077  0.76744  0.00010  1.0000
  C   C290      1.0  0.34723  0.79059  0.00010  1.0000
  C   C291      1.0  0.32027  0.79059  0.00010  1.0000
  C   C292      1.0  0.30672  0.76744  0.00010  1.0000
  C   C293      1.0  0.32085  0.74498  0.00010  1.0000
  C   C294      1.0  0.34663  0.74498  0.00010  1.0000
  C   C295      1.0  0.35469  0.71975  0.00010  1.0000
  N   N73       1.0  0.33374  0.70342  0.00010  1.0000
  C   C296      1.0  0.31279  0.71975  0.00010  1.0000
  N   N74       1.0  0.28808  0.71337  0.00010  1.0000
  C   C297      1.0  0.28170  0.68866  0.00010  1.0000
  N   N75       1.0  0.29803  0.66771  0.00010  1.0000
  C   C298      1.0  0.28170  0.64676  0.00010  1.0000
  C   C299      1.0  0.25647  0.65481  0.00010  1.0000
  C   C300      1.0  0.25646  0.68059  0.00010  1.0000
  N   N76       1.0  0.33373  0.63201  0.00010  1.0000
  C   C301      1.0  0.31278  0.61568  0.00010  1.0000
  N   N77       1.0  0.28808  0.62205  0.00010  1.0000
  C   C302      1.0  0.32084  0.59044  0.00010  1.0000
  C   C303      1.0  0.34663  0.59045  0.00010  1.0000
  C   C304      1.0  0.35468  0.61568  0.00010  1.0000
  C   C305      1.0  0.23400  0.69471  0.00010  1.0000
  C   C306      1.0  0.21085  0.68116  0.00010  1.0000
  C   C307      1.0  0.21086  0.65420  0.00010  1.0000
  C   C308      1.0  0.23402  0.64067  0.00010  1.0000
  C   C309      1.0  0.36076  0.56799  0.00010  1.0000
  C   C310      1.0  0.34722  0.54484  0.00010  1.0000
  C   C311      1.0  0.32026  0.54484  0.00010  1.0000
  C   C312      1.0  0.30671  0.56798  0.00010  1.0000
  N   N78       1.0  0.36944  0.66772  0.00010  1.0000
  C   C313      1.0  0.38576  0.64677  0.00010  1.0000
  N   N79       1.0  0.37939  0.62206  0.00010  1.0000
  C   C314      1.0  0.41100  0.65482  0.00010  1.0000
  C   C315      1.0  0.41100  0.68060  0.00010  1.0000
  C   C316      1.0  0.38577  0.68866  0.00010  1.0000
  C   C317      1.0  0.43346  0.69473  0.00010  1.0000
  C   C318      1.0  0.45661  0.68118  0.00010  1.0000
  C   C319      1.0  0.45660  0.65422  0.00010  1.0000
  C   C320      1.0  0.43345  0.64068  0.00010  1.0000
  N   N80       1.0  0.37939  0.71337  0.00010  1.0000
  H   H73       1.0  0.37896  0.76714  0.00010  1.0000
  O   O73       1.0  0.35844  0.81013  0.00010  1.0000
  O   O74       1.0  0.30907  0.81013  0.00010  1.0000
  H   H74       1.0  0.28853  0.76714  0.00010  1.0000
  H   H75       1.0  0.23429  0.71290  0.00010  1.0000
  O   O75       1.0  0.19131  0.69235  0.00010  1.0000
  O   O76       1.0  0.19133  0.64298  0.00010  1.0000
  H   H76       1.0  0.23432  0.62248  0.00010  1.0000
  H   H77       1.0  0.37895  0.56829  0.00010  1.0000
  O   O77       1.0  0.35842  0.52531  0.00010  1.0000
  O   O78       1.0  0.30906  0.52530  0.00010  1.0000
  H   H78       1.0  0.28852  0.56827  0.00010  1.0000
  H   H79       1.0  0.43317  0.71292  0.00010  1.0000
  O   O79       1.0  0.47615  0.69238  0.00010  1.0000
  O   O80       1.0  0.47614  0.64301  0.00010  1.0000
  H   H80       1.0  0.43314  0.62249  0.00010  1.0000
  Ni  Ni10      1.0  0.33373  0.66772  0.00010  1.0000
  C   C321      1.0  0.64002  0.23465  0.00010  1.0000
  C   C322      1.0  0.65356  0.21150  0.00010  1.0000
  C   C323      1.0  0.68052  0.21150  0.00010  1.0000
  C   C324      1.0  0.69407  0.23465  0.00010  1.0000
  C   C325      1.0  0.67994  0.25711  0.00010  1.0000
  C   C326      1.0  0.65416  0.25711  0.00010  1.0000
  C   C327      1.0  0.64610  0.28234  0.00010  1.0000
  N   N81       1.0  0.66705  0.29867  0.00010  1.0000
  C   C328      1.0  0.68800  0.28234  0.00010  1.0000
  N   N82       1.0  0.71271  0.28872  0.00010  1.0000
  C   C329      1.0  0.71909  0.31343  0.00010  1.0000
  N   N83       1.0  0.70276  0.33438  0.00010  1.0000
  C   C330      1.0  0.71909  0.35533  0.00010  1.0000
  C   C331      1.0  0.74432  0.34728  0.00010  1.0000
  C   C332      1.0  0.74433  0.32150  0.00010  1.0000
  N   N84       1.0  0.66706  0.37008  0.00010  1.0000
  C   C333      1.0  0.68801  0.38641  0.00010  1.0000
  N   N85       1.0  0.71271  0.38004  0.00010  1.0000
  C   C334      1.0  0.67995  0.41165  0.00010  1.0000
  C   C335      1.0  0.65417  0.41165  0.00010  1.0000
  C   C336      1.0  0.64611  0.38641  0.00010  1.0000
  C   C337      1.0  0.76679  0.30738  0.00010  1.0000
  C   C338      1.0  0.78993  0.32093  0.00010  1.0000
  C   C339      1.0  0.78992  0.34789  0.00010  1.0000
  C   C340      1.0  0.76677  0.36142  0.00010  1.0000
  C   C341      1.0  0.64003  0.43410  0.00010  1.0000
  C   C342      1.0  0.65357  0.45725  0.00010  1.0000
  C   C343      1.0  0.68053  0.45725  0.00010  1.0000
  C   C344      1.0  0.69408  0.43411  0.00010  1.0000
  N   N86       1.0  0.63135  0.33438  0.00010  1.0000
  C   C345      1.0  0.61503  0.35532  0.00010  1.0000
  N   N87       1.0  0.62140  0.38003  0.00010  1.0000
  C   C346      1.0  0.58979  0.34727  0.00010  1.0000
  C   C347      1.0  0.58978  0.32149  0.00010  1.0000
  C   C348      1.0  0.61502  0.31343  0.00010  1.0000
  C   C349      1.0  0.56732  0.30736  0.00010  1.0000
  C   C350      1.0  0.54418  0.32091  0.00010  1.0000
  C   C351      1.0  0.54419  0.34787  0.00010  1.0000
  C   C352      1.0  0.56734  0.36141  0.00010  1.0000
  N   N88       1.0  0.62140  0.28872  0.00010  1.0000
  H   H81       1.0  0.62183  0.23495  0.00010  1.0000
  O   O81       1.0  0.64235  0.19196  0.00010  1.0000
  O   O82       1.0  0.69172  0.19196  0.00010  1.0000
  H   H82       1.0  0.71226  0.23495  0.00010  1.0000
  H   H83       1.0  0.76650  0.28919  0.00010  1.0000
  O   O83       1.0  0.80948  0.30974  0.00010  1.0000
  O   O84       1.0  0.80946  0.35911  0.00010  1.0000
  H   H84       1.0  0.76647  0.37961  0.00010  1.0000
  H   H85       1.0  0.62184  0.43380  0.00010  1.0000
  O   O85       1.0  0.64237  0.47678  0.00010  1.0000
  O   O86       1.0  0.69173  0.47679  0.00010  1.0000
  H   H86       1.0  0.71227  0.43382  0.00010  1.0000
  H   H87       1.0  0.56761  0.28917  0.00010  1.0000
  O   O87       1.0  0.52464  0.30972  0.00010  1.0000
  O   O88       1.0  0.52465  0.35908  0.00010  1.0000
  H   H88       1.0  0.56765  0.37960  0.00010  1.0000
  Ni  Ni11      1.0  0.66705  0.33437  0.00010  1.0000
  C   C353      1.0  0.64005  0.76743  0.00010  1.0000
  C   C354      1.0  0.65359  0.79058  0.00010  1.0000
  C   C355      1.0  0.68055  0.79058  0.00010  1.0000
  C   C356      1.0  0.69410  0.76743  0.00010  1.0000
  C   C357      1.0  0.67997  0.74498  0.00010  1.0000
  C   C358      1.0  0.65419  0.74497  0.00010  1.0000
  C   C359      1.0  0.64613  0.71974  0.00010  1.0000
  N   N89       1.0  0.66708  0.70342  0.00010  1.0000
  C   C360      1.0  0.68803  0.71974  0.00010  1.0000
  N   N90       1.0  0.71274  0.71336  0.00010  1.0000
  C   C361      1.0  0.71911  0.68865  0.00010  1.0000
  N   N91       1.0  0.70278  0.66771  0.00010  1.0000
  C   C362      1.0  0.71910  0.64676  0.00010  1.0000
  C   C363      1.0  0.74434  0.65481  0.00010  1.0000
  C   C364      1.0  0.74435  0.68059  0.00010  1.0000
  N   N92       1.0  0.66707  0.63200  0.00010  1.0000
  C   C365      1.0  0.68802  0.61567  0.00010  1.0000
  N   N93       1.0  0.71273  0.62205  0.00010  1.0000
  C   C366      1.0  0.67996  0.59043  0.00010  1.0000
  C   C367      1.0  0.65418  0.59044  0.00010  1.0000
  C   C368      1.0  0.64612  0.61567  0.00010  1.0000
  C   C369      1.0  0.76681  0.69471  0.00010  1.0000
  C   C370      1.0  0.78996  0.68116  0.00010  1.0000
  C   C371      1.0  0.78994  0.65420  0.00010  1.0000
  C   C372      1.0  0.76679  0.64067  0.00010  1.0000
  C   C373      1.0  0.64004  0.56798  0.00010  1.0000
  C   C374      1.0  0.65358  0.54483  0.00010  1.0000
  C   C375      1.0  0.68054  0.54483  0.00010  1.0000
  C   C376      1.0  0.69409  0.56798  0.00010  1.0000
  N   N94       1.0  0.63137  0.66771  0.00010  1.0000
  C   C377      1.0  0.61505  0.64676  0.00010  1.0000
  N   N95       1.0  0.62142  0.62205  0.00010  1.0000
  C   C378      1.0  0.58981  0.65481  0.00010  1.0000
  C   C379      1.0  0.58981  0.68059  0.00010  1.0000
  C   C380      1.0  0.61505  0.68865  0.00010  1.0000
  C   C381      1.0  0.56735  0.69472  0.00010  1.0000
  C   C382      1.0  0.54420  0.68116  0.00010  1.0000
  C   C383      1.0  0.54421  0.65420  0.00010  1.0000
  C   C384      1.0  0.56736  0.64067  0.00010  1.0000
  N   N96       1.0  0.62142  0.71336  0.00010  1.0000
  H   H89       1.0  0.62186  0.76713  0.00010  1.0000
  O   O89       1.0  0.64239  0.81012  0.00010  1.0000
  O   O90       1.0  0.69175  0.81012  0.00010  1.0000
  H   H90       1.0  0.71229  0.76714  0.00010  1.0000
  H   H91       1.0  0.76653  0.71290  0.00010  1.0000
  O   O91       1.0  0.80950  0.69235  0.00010  1.0000
  O   O92       1.0  0.80947  0.64298  0.00010  1.0000
  H   H92       1.0  0.76648  0.62248  0.00010  1.0000
  H   H93       1.0  0.62185  0.56828  0.00010  1.0000
  O   O93       1.0  0.64237  0.52530  0.00010  1.0000
  O   O94       1.0  0.69174  0.52529  0.00010  1.0000
  H   H94       1.0  0.71228  0.56827  0.00010  1.0000
  H   H95       1.0  0.56764  0.71290  0.00010  1.0000
  O   O95       1.0  0.52466  0.69236  0.00010  1.0000
  O   O96       1.0  0.52467  0.64299  0.00010  1.0000
  H   H96       1.0  0.56767  0.62248  0.00010  1.0000
  Ni  Ni12      1.0  0.66708  0.66771  0.00010  1.0000
  C   C385      1.0  0.97335  0.33465  0.10045  1.0000
  C   C386      1.0  0.98689  0.33460  0.12360  1.0000
  C   C387      1.0  0.01385  0.33452  0.12360  1.0000
  C   C388      1.0  0.02740  0.33447  0.10045  1.0000
  C   C389      1.0  0.01327  0.33452  0.07800  1.0000
  C   C390      1.0  0.98749  0.33463  0.07799  1.0000
  C   C391      1.0  0.97943  0.33466  0.05276  1.0000
  N   N97       1.0  0.00010  0.33458  0.03644  1.0000
  C   C392      1.0  0.02133  0.33449  0.05276  1.0000
  N   N98       1.0  0.04604  0.33438  0.04638  1.0000
  C   C393      1.0  0.05242  0.33440  0.02167  1.0000
  N   N99       1.0  0.03609  0.33448  0.00010  1.0000
  C   C394      1.0  0.05241  0.33452  0.97978  1.0000
  C   C395      1.0  0.07765  0.33444  0.98783  1.0000
  C   C396      1.0  0.07766  0.33438  0.01361  1.0000
  N   N100      1.0  0.00010  0.33453  0.96502  1.0000
  C   C397      1.0  0.02133  0.33460  0.94869  1.0000
  N   N101      1.0  0.04604  0.33463  0.95507  1.0000
  C   C398      1.0  0.01327  0.33455  0.92345  1.0000
  C   C399      1.0  0.98749  0.33445  0.92346  1.0000
  C   C400      1.0  0.97943  0.33442  0.94869  1.0000
  C   C401      1.0  0.10012  0.33434  0.02773  1.0000
  C   C402      1.0  0.12326  0.33434  0.01418  1.0000
  C   C403      1.0  0.12325  0.33436  0.98722  1.0000
  C   C404      1.0  0.10010  0.33443  0.97369  1.0000
  C   C405      1.0  0.97335  0.33441  0.90100  1.0000
  C   C406      1.0  0.98689  0.33448  0.87785  1.0000
  C   C407      1.0  0.01385  0.33456  0.87785  1.0000
  C   C408      1.0  0.02740  0.33459  0.90100  1.0000
  N   N102      1.0  0.96468  0.33450  0.00010  1.0000
  C   C409      1.0  0.94835  0.33440  0.97977  1.0000
  N   N103      1.0  0.95473  0.33431  0.95507  1.0000
  C   C410      1.0  0.92312  0.33440  0.98783  1.0000
  C   C411      1.0  0.92311  0.33452  0.01361  1.0000
  C   C412      1.0  0.94835  0.33459  0.02167  1.0000
  C   C413      1.0  0.90065  0.33452  0.02773  1.0000
  C   C414      1.0  0.87751  0.33441  0.01418  1.0000
  C   C415      1.0  0.87751  0.33434  0.98722  1.0000
  C   C416      1.0  0.90067  0.33433  0.97368  1.0000
  N   N104      1.0  0.95473  0.33471  0.04638  1.0000
  H   H97       1.0  0.95516  0.33471  0.10015  1.0000
  O   O97       1.0  0.97568  0.33462  0.14314  1.0000
  O   O98       1.0  0.02505  0.33448  0.14314  1.0000
  H   H98       1.0  0.04559  0.33441  0.10016  1.0000
  H   H99       1.0  0.09983  0.33432  0.04592  1.0000
  O   O99       1.0  0.14281  0.33433  0.02537  1.0000
  O   O100      1.0  0.14278  0.33432  0.97601  1.0000
  H   H100      1.0  0.09979  0.33445  0.95550  1.0000
  H   H101      1.0  0.95517  0.33435  0.90130  1.0000
  O   O101      1.0  0.97569  0.33449  0.85832  1.0000
  O   O102      1.0  0.02505  0.33461  0.85831  1.0000
  H   H102      1.0  0.04559  0.33464  0.90129  1.0000
  H   H103      1.0  0.90094  0.33457  0.04592  1.0000
  O   O103      1.0  0.85797  0.33437  0.02538  1.0000
  O   O104      1.0  0.85798  0.33428  0.97601  1.0000
  H   H104      1.0  0.90097  0.33427  0.95549  1.0000
  Ni  Ni13      1.0  0.00010  0.33456  0.00010  1.0000
  C   C417      1.0  0.66726  0.10077  0.97368  1.0000
  C   C418      1.0  0.66720  0.12392  0.98722  1.0000
  C   C419      1.0  0.66712  0.12392  0.01418  1.0000
  C   C420      1.0  0.66708  0.10077  0.02773  1.0000
  C   C421      1.0  0.66713  0.07832  0.01360  1.0000
  C   C422      1.0  0.66723  0.07831  0.98782  1.0000
  C   C423      1.0  0.66726  0.05308  0.97976  1.0000
  N   N105      1.0  0.66718  0.03676  0.00010  1.0000
  C   C424      1.0  0.66710  0.05308  0.02166  1.0000
  N   N106      1.0  0.66699  0.04670  0.04637  1.0000
  C   C425      1.0  0.66701  0.02199  0.05275  1.0000
  N   N107      1.0  0.66709  0.00105  0.03642  1.0000
  C   C426      1.0  0.66713  0.98009  0.05274  1.0000
  C   C427      1.0  0.66705  0.98815  0.07797  1.0000
  C   C428      1.0  0.66699  0.01393  0.07798  1.0000
  N   N108      1.0  0.66714  0.96534  0.00010  1.0000
  C   C429      1.0  0.66721  0.94901  0.02166  1.0000
  N   N109      1.0  0.66724  0.95538  0.04636  1.0000
  C   C430      1.0  0.66716  0.92377  0.01360  1.0000
  C   C431      1.0  0.66706  0.92378  0.98781  1.0000
  C   C432      1.0  0.66703  0.94901  0.97976  1.0000
  C   C433      1.0  0.66695  0.02805  0.10045  1.0000
  C   C434      1.0  0.66695  0.01449  0.12359  1.0000
  C   C435      1.0  0.66697  0.98754  0.12358  1.0000
  C   C436      1.0  0.66704  0.97400  0.10042  1.0000
  C   C437      1.0  0.66702  0.90132  0.97368  1.0000
  C   C438      1.0  0.66709  0.87817  0.98722  1.0000
  C   C439      1.0  0.66718  0.87817  0.01418  1.0000
  C   C440      1.0  0.66720  0.90132  0.02772  1.0000
  N   N110      1.0  0.66711  0.00105  0.96500  1.0000
  C   C441      1.0  0.66700  0.98010  0.94868  1.0000
  N   N111      1.0  0.66692  0.95539  0.95505  1.0000
  C   C442      1.0  0.66701  0.98815  0.92345  1.0000
  C   C443      1.0  0.66712  0.01393  0.92344  1.0000
  C   C444      1.0  0.66720  0.02199  0.94868  1.0000
  C   C445      1.0  0.66712  0.02806  0.90098  1.0000
  C   C446      1.0  0.66702  0.01451  0.87784  1.0000
  C   C447      1.0  0.66694  0.98755  0.87784  1.0000
  C   C448      1.0  0.66694  0.97401  0.90100  1.0000
  N   N112      1.0  0.66732  0.04670  0.95506  1.0000
  H   H105      1.0  0.66731  0.10047  0.95549  1.0000
  O   O105      1.0  0.66722  0.14346  0.97602  1.0000
  O   O106      1.0  0.66709  0.14346  0.02538  1.0000
  H   H106      1.0  0.66702  0.10047  0.04592  1.0000
  H   H107      1.0  0.66692  0.04624  0.10016  1.0000
  O   O107      1.0  0.66694  0.02569  0.14313  1.0000
  O   O108      1.0  0.66693  0.97632  0.14311  1.0000
  H   H108      1.0  0.66706  0.95581  0.10012  1.0000
  H   H109      1.0  0.66696  0.90162  0.95549  1.0000
  O   O109      1.0  0.66710  0.85864  0.97601  1.0000
  O   O110      1.0  0.66722  0.85863  0.02538  1.0000
  H   H110      1.0  0.66726  0.90161  0.04591  1.0000
  H   H111      1.0  0.66718  0.04625  0.90127  1.0000
  O   O111      1.0  0.66698  0.02570  0.85829  1.0000
  O   O112      1.0  0.66689  0.97634  0.85831  1.0000
  H   H112      1.0  0.66688  0.95582  0.90130  1.0000
  Ni  Ni14      1.0  0.66717  0.00105  0.00010  1.0000
  C   C449      1.0  0.97338  0.66785  0.10044  1.0000
  C   C450      1.0  0.98692  0.66779  0.12359  1.0000
  C   C451      1.0  0.01388  0.66771  0.12359  1.0000
  C   C452      1.0  0.02743  0.66767  0.10044  1.0000
  C   C453      1.0  0.01330  0.66772  0.07799  1.0000
  C   C454      1.0  0.98752  0.66782  0.07799  1.0000
  C   C455      1.0  0.97947  0.66785  0.05275  1.0000
  N   N113      1.0  0.00010  0.66777  0.03643  1.0000
  C   C456      1.0  0.02136  0.66769  0.05275  1.0000
  N   N114      1.0  0.04607  0.66758  0.04638  1.0000
  C   C457      1.0  0.05245  0.66760  0.02167  1.0000
  N   N115      1.0  0.03612  0.66768  0.00010  1.0000
  C   C458      1.0  0.05245  0.66771  0.97977  1.0000
  C   C459      1.0  0.07768  0.66764  0.98782  1.0000
  C   C460      1.0  0.07769  0.66758  0.01360  1.0000
  N   N116      1.0  0.00010  0.66773  0.96501  1.0000
  C   C461      1.0  0.02136  0.66780  0.94868  1.0000
  N   N117      1.0  0.04607  0.66783  0.95506  1.0000
  C   C462      1.0  0.01330  0.66775  0.92345  1.0000
  C   C463      1.0  0.98752  0.66765  0.92345  1.0000
  C   C464      1.0  0.97947  0.66762  0.94868  1.0000
  C   C465      1.0  0.10015  0.66754  0.02773  1.0000
  C   C466      1.0  0.12330  0.66754  0.01417  1.0000
  C   C467      1.0  0.12328  0.66756  0.98721  1.0000
  C   C468      1.0  0.10013  0.66763  0.97368  1.0000
  C   C469      1.0  0.97339  0.66761  0.90099  1.0000
  C   C470      1.0  0.98693  0.66768  0.87784  1.0000
  C   C471      1.0  0.01388  0.66776  0.87784  1.0000
  C   C472      1.0  0.02743  0.66779  0.90099  1.0000
  N   N118      1.0  0.96471  0.66770  0.00010  1.0000
  C   C473      1.0  0.94839  0.66759  0.97977  1.0000
  N   N119      1.0  0.95476  0.66751  0.95506  1.0000
  C   C474      1.0  0.92315  0.66760  0.98782  1.0000
  C   C475      1.0  0.92315  0.66771  0.01360  1.0000
  C   C476      1.0  0.94838  0.66779  0.02166  1.0000
  C   C477      1.0  0.90069  0.66771  0.02772  1.0000
  C   C478      1.0  0.87754  0.66760  0.01417  1.0000
  C   C479      1.0  0.87755  0.66753  0.98721  1.0000
  C   C480      1.0  0.90070  0.66753  0.97367  1.0000
  N   N120      1.0  0.95476  0.66791  0.04637  1.0000
  H   H113      1.0  0.95519  0.66790  0.10014  1.0000
  O   O113      1.0  0.97572  0.66781  0.14313  1.0000
  O   O114      1.0  0.02508  0.66768  0.14314  1.0000
  H   H114      1.0  0.04562  0.66761  0.10015  1.0000
  H   H115      1.0  0.09987  0.66751  0.04591  1.0000
  O   O115      1.0  0.14284  0.66753  0.02537  1.0000
  O   O116      1.0  0.14282  0.66752  0.97600  1.0000
  H   H116      1.0  0.09982  0.66765  0.95549  1.0000
  H   H117      1.0  0.95520  0.66755  0.90129  1.0000
  O   O117      1.0  0.97572  0.66769  0.85831  1.0000
  O   O118      1.0  0.02509  0.66781  0.85831  1.0000
  H   H118      1.0  0.04562  0.66784  0.90128  1.0000
  H   H119      1.0  0.90098  0.66777  0.04591  1.0000
  O   O119      1.0  0.85800  0.66757  0.02537  1.0000
  O   O120      1.0  0.85801  0.66748  0.97600  1.0000
  H   H120      1.0  0.90101  0.66747  0.95549  1.0000
  Ni  Ni15      1.0  0.00010  0.66776  0.00010  1.0000
  C   C481      1.0  0.33398  0.90133  0.02772  1.0000
  C   C482      1.0  0.33392  0.87818  0.01418  1.0000
  C   C483      1.0  0.33384  0.87818  0.98722  1.0000
  C   C484      1.0  0.33380  0.90133  0.97368  1.0000
  C   C485      1.0  0.33385  0.92379  0.98781  1.0000
  C   C486      1.0  0.33395  0.92379  0.01359  1.0000
  C   C487      1.0  0.33398  0.94902  0.02164  1.0000
  N   N121      1.0  0.33390  0.96535  0.00010  1.0000
  C   C488      1.0  0.33382  0.94902  0.97975  1.0000
  N   N122      1.0  0.33371  0.95540  0.95504  1.0000
  C   C489      1.0  0.33372  0.98011  0.94866  1.0000
  N   N123      1.0  0.33380  0.00106  0.96499  1.0000
  C   C490      1.0  0.33384  0.02201  0.94867  1.0000
  C   C491      1.0  0.33376  0.01396  0.92343  1.0000
  C   C492      1.0  0.33370  0.98818  0.92342  1.0000
  N   N124      1.0  0.33385  0.03676  0.00010  1.0000
  C   C493      1.0  0.33392  0.05309  0.97975  1.0000
  N   N125      1.0  0.33395  0.04672  0.95504  1.0000
  C   C494      1.0  0.33387  0.07833  0.98781  1.0000
  C   C495      1.0  0.33377  0.07833  0.01359  1.0000
  C   C496      1.0  0.33375  0.05309  0.02165  1.0000
  C   C497      1.0  0.33366  0.97406  0.90096  1.0000
  C   C498      1.0  0.33366  0.98761  0.87782  1.0000
  C   C499      1.0  0.33368  0.01457  0.87783  1.0000
  C   C500      1.0  0.33375  0.02810  0.90098  1.0000
  C   C501      1.0  0.33373  0.10078  0.02773  1.0000
  C   C502      1.0  0.33380  0.12393  0.01419  1.0000
  C   C503      1.0  0.33388  0.12393  0.98723  1.0000
  C   C504      1.0  0.33391  0.10079  0.97368  1.0000
  N   N126      1.0  0.33383  0.00106  0.03640  1.0000
  C   C505      1.0  0.33372  0.02200  0.05273  1.0000
  N   N127      1.0  0.33364  0.04671  0.04635  1.0000
  C   C506      1.0  0.33372  0.01395  0.07796  1.0000
  C   C507      1.0  0.33384  0.98817  0.07797  1.0000
  C   C508      1.0  0.33391  0.98011  0.05273  1.0000
  C   C509      1.0  0.33384  0.97404  0.10042  1.0000
  C   C510      1.0  0.33373  0.98760  0.12357  1.0000
  C   C511      1.0  0.33366  0.01455  0.12356  1.0000
  C   C512      1.0  0.33365  0.02809  0.10041  1.0000
  N   N128      1.0  0.33403  0.95540  0.04635  1.0000
  H   H121      1.0  0.33403  0.90163  0.04591  1.0000
  O   O121      1.0  0.33394  0.85864  0.02539  1.0000
  O   O122      1.0  0.33380  0.85864  0.97602  1.0000
  H   H122      1.0  0.33373  0.90163  0.95549  1.0000
  H   H123      1.0  0.33364  0.95587  0.90124  1.0000
  O   O123      1.0  0.33366  0.97642  0.85827  1.0000
  O   O124      1.0  0.33364  0.02579  0.85830  1.0000
  H   H124      1.0  0.33377  0.04629  0.90129  1.0000
  H   H125      1.0  0.33367  0.10048  0.04592  1.0000
  O   O125      1.0  0.33381  0.14346  0.02540  1.0000
  O   O126      1.0  0.33393  0.14347  0.97603  1.0000
  H   H126      1.0  0.33397  0.10050  0.95549  1.0000
  H   H127      1.0  0.33390  0.95585  0.10013  1.0000
  O   O127      1.0  0.33369  0.97640  0.14311  1.0000
  O   O128      1.0  0.33360  0.02576  0.14310  1.0000
  H   H128      1.0  0.33359  0.04628  0.10010  1.0000
  Ni  Ni16      1.0  0.33388  0.00105  0.00010  1.0000
  C   C513      1.0  0.97338  0.90129  0.33431  1.0000
  C   C514      1.0  0.98692  0.87814  0.33426  1.0000
  C   C515      1.0  0.01388  0.87814  0.33417  1.0000
  C   C516      1.0  0.02743  0.90130  0.33413  1.0000
  C   C517      1.0  0.01329  0.92375  0.33418  1.0000
  C   C518      1.0  0.98751  0.92375  0.33429  1.0000
  C   C519      1.0  0.97945  0.94898  0.33431  1.0000
  N   N129      1.0  0.00010  0.96531  0.33423  1.0000
  C   C520      1.0  0.02135  0.94899  0.33415  1.0000
  N   N130      1.0  0.04606  0.95537  0.33404  1.0000
  C   C521      1.0  0.05244  0.98008  0.33406  1.0000
  N   N131      1.0  0.03611  0.00103  0.33414  1.0000
  C   C522      1.0  0.05243  0.02198  0.33417  1.0000
  C   C523      1.0  0.07766  0.01393  0.33410  1.0000
  C   C524      1.0  0.07767  0.98815  0.33403  1.0000
  N   N132      1.0  0.00010  0.03673  0.33419  1.0000
  C   C525      1.0  0.02134  0.05306  0.33426  1.0000
  N   N133      1.0  0.04605  0.04669  0.33429  1.0000
  C   C526      1.0  0.01328  0.07829  0.33421  1.0000
  C   C527      1.0  0.98750  0.07829  0.33411  1.0000
  C   C528      1.0  0.97944  0.05305  0.33408  1.0000
  C   C529      1.0  0.10014  0.97403  0.33400  1.0000
  C   C530      1.0  0.12328  0.98759  0.33400  1.0000
  C   C531      1.0  0.12327  0.01455  0.33402  1.0000
  C   C532      1.0  0.10011  0.02808  0.33408  1.0000
  C   C533      1.0  0.97336  0.10074  0.33407  1.0000
  C   C534      1.0  0.98690  0.12389  0.33414  1.0000
  C   C535      1.0  0.01385  0.12390  0.33422  1.0000
  C   C536      1.0  0.02740  0.10075  0.33425  1.0000
  N   N134      1.0  0.96469  0.00101  0.33416  1.0000
  C   C537      1.0  0.94837  0.02196  0.33406  1.0000
  N   N135      1.0  0.95474  0.04667  0.33397  1.0000
  C   C538      1.0  0.92313  0.01390  0.33406  1.0000
  C   C539      1.0  0.92313  0.98812  0.33418  1.0000
  C   C540      1.0  0.94837  0.98006  0.33425  1.0000
  C   C541      1.0  0.90067  0.97399  0.33418  1.0000
  C   C542      1.0  0.87752  0.98754  0.33407  1.0000
  C   C543      1.0  0.87753  0.01450  0.33400  1.0000
  C   C544      1.0  0.90068  0.02804  0.33399  1.0000
  N   N136      1.0  0.95475  0.95536  0.33437  1.0000
  H   H129      1.0  0.95519  0.90159  0.33437  1.0000
  O   O129      1.0  0.97571  0.85860  0.33427  1.0000
  O   O130      1.0  0.02508  0.85861  0.33414  1.0000
  H   H130      1.0  0.04561  0.90160  0.33407  1.0000
  H   H131      1.0  0.09985  0.95584  0.33397  1.0000
  O   O131      1.0  0.14282  0.97640  0.33399  1.0000
  O   O132      1.0  0.14280  0.02577  0.33398  1.0000
  H   H132      1.0  0.09980  0.04627  0.33411  1.0000
  H   H133      1.0  0.95517  0.10043  0.33401  1.0000
  O   O133      1.0  0.97569  0.14342  0.33415  1.0000
  O   O134      1.0  0.02506  0.14344  0.33427  1.0000
  H   H134      1.0  0.04559  0.10046  0.33430  1.0000
  H   H135      1.0  0.90096  0.95580  0.33423  1.0000
  O   O135      1.0  0.85798  0.97634  0.33403  1.0000
  O   O136      1.0  0.85799  0.02570  0.33394  1.0000
  H   H136      1.0  0.90099  0.04623  0.33393  1.0000
  Ni  Ni17      1.0  0.00010  0.00102  0.33422  1.0000
  C   C545      1.0  0.97338  0.90130  0.66755  1.0000
  C   C546      1.0  0.98692  0.87815  0.66750  1.0000
  C   C547      1.0  0.01388  0.87816  0.66741  1.0000
  C   C548      1.0  0.02743  0.90131  0.66737  1.0000
  C   C549      1.0  0.01330  0.92377  0.66742  1.0000
  C   C550      1.0  0.98751  0.92376  0.66753  1.0000
  C   C551      1.0  0.97946  0.94900  0.66756  1.0000
  N   N137      1.0  0.00010  0.96532  0.66748  1.0000
  C   C552      1.0  0.02135  0.94900  0.66739  1.0000
  N   N138      1.0  0.04606  0.95538  0.66728  1.0000
  C   C553      1.0  0.05244  0.98010  0.66730  1.0000
  N   N139      1.0  0.03611  0.00104  0.66738  1.0000
  C   C554      1.0  0.05243  0.02199  0.66742  1.0000
  C   C555      1.0  0.07766  0.01395  0.66734  1.0000
  C   C556      1.0  0.07767  0.98816  0.66728  1.0000
  N   N140      1.0  0.00010  0.03674  0.66743  1.0000
  C   C557      1.0  0.02134  0.05307  0.66750  1.0000
  N   N141      1.0  0.04605  0.04670  0.66753  1.0000
  C   C558      1.0  0.01328  0.07831  0.66745  1.0000
  C   C559      1.0  0.98750  0.07830  0.66735  1.0000
  C   C560      1.0  0.97944  0.05306  0.66733  1.0000
  C   C561      1.0  0.10014  0.97405  0.66724  1.0000
  C   C562      1.0  0.12328  0.98761  0.66724  1.0000
  C   C563      1.0  0.12327  0.01457  0.66726  1.0000
  C   C564      1.0  0.10011  0.02809  0.66733  1.0000
  C   C565      1.0  0.97336  0.10075  0.66731  1.0000
  C   C566      1.0  0.98690  0.12390  0.66738  1.0000
  C   C567      1.0  0.01385  0.12391  0.66746  1.0000
  C   C568      1.0  0.02740  0.10077  0.66749  1.0000
  N   N142      1.0  0.96469  0.00102  0.66741  1.0000
  C   C569      1.0  0.94837  0.02197  0.66730  1.0000
  N   N143      1.0  0.95474  0.04668  0.66722  1.0000
  C   C570      1.0  0.92313  0.01391  0.66730  1.0000
  C   C571      1.0  0.92313  0.98813  0.66742  1.0000
  C   C572      1.0  0.94837  0.98007  0.66749  1.0000
  C   C573      1.0  0.90067  0.97400  0.66742  1.0000
  C   C574      1.0  0.87753  0.98755  0.66731  1.0000
  C   C575      1.0  0.87753  0.01451  0.66724  1.0000
  C   C576      1.0  0.90068  0.02805  0.66723  1.0000
  N   N144      1.0  0.95475  0.95537  0.66761  1.0000
  H   H137      1.0  0.95519  0.90160  0.66761  1.0000
  O   O137      1.0  0.97572  0.85862  0.66752  1.0000
  O   O138      1.0  0.02509  0.85862  0.66738  1.0000
  H   H138      1.0  0.04562  0.90161  0.66731  1.0000
  H   H139      1.0  0.09986  0.95586  0.66721  1.0000
  O   O139      1.0  0.14283  0.97642  0.66723  1.0000
  O   O140      1.0  0.14280  0.02579  0.66722  1.0000
  H   H140      1.0  0.09980  0.04628  0.66735  1.0000
  H   H141      1.0  0.95517  0.10045  0.66725  1.0000
  O   O141      1.0  0.97569  0.14343  0.66739  1.0000
  O   O142      1.0  0.02505  0.14345  0.66751  1.0000
  H   H142      1.0  0.04559  0.10048  0.66754  1.0000
  H   H143      1.0  0.90097  0.95581  0.66748  1.0000
  O   O143      1.0  0.85799  0.97635  0.66727  1.0000
  O   O144      1.0  0.85799  0.02571  0.66719  1.0000
  H   H144      1.0  0.90099  0.04624  0.66717  1.0000
  Ni  Ni18      1.0  0.00010  0.00103  0.66746  1.0000
  Cu  Cu1       1.0  0.00010  0.50102  0.33407  1.0000
  Cu  Cu2       1.0  0.50040  0.00105  0.33406  1.0000
  Cu  Cu3       1.0  0.00010  0.50103  0.66737  1.0000
  Cu  Cu4       1.0  0.50040  0.00110  0.66734  1.0000
  Cu  Cu5       1.0  0.33374  0.00117  0.50070  1.0000
  Cu  Cu6       1.0  0.00010  0.33439  0.50072  1.0000
  Cu  Cu7       1.0  0.66706  0.00010  0.50071  1.0000
  Cu  Cu8       1.0  0.00010  0.66766  0.50072  1.0000
  Cu  Cu9       1.0  0.50039  0.33441  0.00010  1.0000
  Cu  Cu10      1.0  0.50040  0.66768  0.00010  1.0000
  Cu  Cu11      1.0  0.33375  0.50105  0.00010  1.0000
  Cu  Cu12      1.0  0.66705  0.50104  0.00010  1.0000
  Zn  Zn1       1.0  0.00010  0.33447  0.16739  1.0000
  Zn  Zn2       1.0  0.66699  0.00010  0.16737  1.0000
  Zn  Zn3       1.0  0.00010  0.66769  0.16739  1.0000
  Zn  Zn4       1.0  0.33369  0.00115  0.16736  1.0000
  Zn  Zn5       1.0  0.00010  0.66770  0.83405  1.0000
  Zn  Zn6       1.0  0.33370  0.00108  0.83403  1.0000
  Zn  Zn7       1.0  0.00010  0.33448  0.83406  1.0000
  Zn  Zn8       1.0  0.66699  0.00107  0.83405  1.0000
  Zn  Zn9       1.0  0.16706  0.00106  0.33403  1.0000
  Zn  Zn10      1.0  0.00010  0.16769  0.33414  1.0000
  Zn  Zn11      1.0  0.83374  0.00104  0.33404  1.0000
  Zn  Zn12      1.0  0.00010  0.83435  0.33414  1.0000
  Zn  Zn13      1.0  0.16707  0.00120  0.66728  1.0000
  Zn  Zn14      1.0  0.00010  0.16769  0.66741  1.0000
  Zn  Zn15      1.0  0.83373  0.00010  0.66729  1.0000
  Zn  Zn16      1.0  0.00010  0.83436  0.66741  1.0000
  Zn  Zn17      1.0  0.33381  0.16772  0.00010  1.0000
  Zn  Zn18      1.0  0.33381  0.83439  0.00010  1.0000
  Zn  Zn19      1.0  0.16706  0.33437  0.00010  1.0000
  Zn  Zn20      1.0  0.66709  0.16771  0.00010  1.0000
  Zn  Zn21      1.0  0.83375  0.66759  0.00010  1.0000
  Zn  Zn22      1.0  0.66712  0.83438  0.00010  1.0000
  Zn  Zn23      1.0  0.16707  0.66760  0.00010  1.0000
  Zn  Zn24      1.0  0.83372  0.33437  0.00010  1.0000
