data_image0
_chemical_formula_structural       C7NCNCNC3NCNC11NCNC7NH8C16HO2H2O2H2O2H2O2HNiC7NCNCNC3NCNC11NCNC7NH8C16HO2H2O2H2O2H2O2HNiC7NCNCNC3NCNC11NCNC7NH8C16HO2H2O2H2O2H2O2HNiC7NCNCNC3NCNC11NCNC7NH8C16HO2H2O2H2O2H2O2HNiC7NCNCNC3NCNC11NCNC7NH8C16HO2H2O2H2O2H2O2HNiC7NCNCNC3NCNC11NCNC7NH8C16HO2H2O2H2O2H2O2HNiC7NCNCNC3NCNC11NCNC7NH8C16HO2H2O2H2O2H2O2HNiC7NCNCNC3NCNC11NCNC7NH8C16HO2H2O2H2O2H2O2HNiC7NCNCNC3NCNC11NCNC7NH8C16HO2H2O2H2O2H2O2HNiC7NCNCNC3NCNC11NCNC7NH8C16HO2H2O2H2O2H2O2HNiC7NCNCNC3NCNC11NCNC7NH8C16HO2H2O2H2O2H2O2HNiC7NCNCNC3NCNC11NCNC7NH8C16HO2H2O2H2O2H2O2HNiC7NCNCNC3NCNC11NCNC7NH8C16HO2H2O2H2O2H2O2HNiC7NCNCNC3NCNC11NCNC7NH8C16HO2H2O2H2O2H2O2HNiC7NCNCNC3NCNC11NCNC7NH8C16HO2H2O2H2O2H2O2HNiC7NCNCNC3NCNC11NCNC7NH8C16HO2H2O2H2O2H2O2HNiC7NCNCNC3NCNC11NCNC7NH8C16HO2H2O2H2O2H2O2HNiC7NCNCNC3NCNC11NCNC7NH8C16HO2H2O2H2O2H2O2HNiCu12Zn24
_chemical_formula_sum              "C864 N144 H288 O144 Ni18 Cu12 Zn24"
_cell_length_a       75.2143
_cell_length_b       75.2188
_cell_length_c       75.2171
_cell_angle_alpha    90.047
_cell_angle_beta     90.0462
_cell_angle_gamma    89.9527

_space_group_name_H-M_alt    "P 1"
_space_group_IT_number       1

loop_
  _space_group_symop_operation_xyz
  'x, y, z'

loop_
  _atom_site_type_symbol
  _atom_site_label
  _atom_site_symmetry_multiplicity
  _atom_site_fract_x
  _atom_site_fract_y
  _atom_site_fract_z
  _atom_site_occupancy
  C   C1        1.0  0.00118  0.25674  0.31410  1.0000
  C   C2        1.0  0.00121  0.23901  0.32454  1.0000
  C   C3        1.0  0.00124  0.23901  0.34515  1.0000
  C   C4        1.0  0.00123  0.25672  0.35551  1.0000
  C   C5        1.0  0.00120  0.27396  0.34470  1.0000
  C   C6        1.0  0.00117  0.27396  0.32482  1.0000
  C   C7        1.0  0.00114  0.29333  0.31854  1.0000
  N   N1        1.0  0.00114  0.30552  0.33473  1.0000
  C   C8        1.0  0.00118  0.29332  0.35094  1.0000
  N   N2        1.0  0.00120  0.29898  0.37018  1.0000
  C   C9        1.0  0.00118  0.31820  0.37582  1.0000
  N   N3        1.0  0.00115  0.33440  0.36362  1.0000
  C   C10       1.0  0.00114  0.35058  0.37578  1.0000
  C   C11       1.0  0.00117  0.34429  0.39514  1.0000
  C   C12       1.0  0.00120  0.32443  0.39519  1.0000
  N   N4        1.0  0.00107  0.36327  0.33475  1.0000
  C   C13       1.0  0.00108  0.37543  0.35092  1.0000
  N   N5        1.0  0.00111  0.36978  0.37012  1.0000
  C   C14       1.0  0.00105  0.39481  0.34463  1.0000
  C   C15       1.0  0.00102  0.39483  0.32477  1.0000
  C   C16       1.0  0.00104  0.37547  0.31855  1.0000
  C   C17       1.0  0.00123  0.31364  0.41243  1.0000
  C   C18       1.0  0.00124  0.32395  0.43012  1.0000
  C   C19       1.0  0.00122  0.34454  0.43009  1.0000
  C   C20       1.0  0.00118  0.35499  0.41236  1.0000
  C   C21       1.0  0.00010  0.41207  0.31397  1.0000
  C   C22       1.0  0.00010  0.42978  0.32430  1.0000
  C   C23       1.0  0.00101  0.42974  0.34489  1.0000
  C   C24       1.0  0.00104  0.41202  0.35533  1.0000
  N   N6        1.0  0.00107  0.33439  0.30586  1.0000
  C   C25       1.0  0.00104  0.35059  0.29367  1.0000
  N   N7        1.0  0.00102  0.36983  0.29933  1.0000
  C   C26       1.0  0.00102  0.34436  0.27430  1.0000
  C   C27       1.0  0.00105  0.32449  0.27432  1.0000
  C   C28       1.0  0.00108  0.31820  0.29368  1.0000
  C   C29       1.0  0.00104  0.31378  0.25709  1.0000
  C   C30       1.0  0.00100  0.32422  0.23935  1.0000
  C   C31       1.0  0.00010  0.34483  0.23934  1.0000
  C   C32       1.0  0.00010  0.35517  0.25707  1.0000
  N   N8        1.0  0.00111  0.29897  0.29933  1.0000
  H   H1        1.0  0.00116  0.25696  0.29901  1.0000
  H   H2        1.0  0.00125  0.25693  0.37061  1.0000
  H   H3        1.0  0.00125  0.29854  0.41223  1.0000
  H   H4        1.0  0.00116  0.37008  0.41213  1.0000
  H   H5        1.0  0.00010  0.41189  0.29889  1.0000
  H   H6        1.0  0.00106  0.41178  0.37042  1.0000
  H   H7        1.0  0.00106  0.29869  0.25731  1.0000
  H   H8        1.0  0.00010  0.37027  0.25727  1.0000
  C   C33       1.0  0.00010  0.31414  0.22163  1.0000
  C   C34       1.0  0.00010  0.32444  0.20394  1.0000
  C   C35       1.0  0.00010  0.34482  0.20392  1.0000
  C   C36       1.0  0.00010  0.35501  0.22161  1.0000
  C   C37       1.0  0.00122  0.22127  0.31446  1.0000
  C   C38       1.0  0.00126  0.20357  0.32476  1.0000
  C   C39       1.0  0.00128  0.20356  0.34513  1.0000
  C   C40       1.0  0.00127  0.22125  0.35533  1.0000
  C   C41       1.0  0.00128  0.31377  0.44787  1.0000
  C   C42       1.0  0.00129  0.32396  0.46554  1.0000
  C   C43       1.0  0.00126  0.34433  0.46550  1.0000
  C   C44       1.0  0.00123  0.35461  0.44780  1.0000
  C   C45       1.0  0.00010  0.44753  0.31412  1.0000
  C   C46       1.0  0.00010  0.46518  0.32429  1.0000
  C   C47       1.0  0.00010  0.46516  0.34464  1.0000
  C   C48       1.0  0.00010  0.44746  0.35494  1.0000
  H   H9        1.0  0.00101  0.29905  0.22161  1.0000
  O   O1        1.0  0.00010  0.31458  0.18669  1.0000
  O   O2        1.0  0.00010  0.35479  0.18666  1.0000
  H   H10       1.0  0.00010  0.37012  0.22155  1.0000
  H   H11       1.0  0.00120  0.22124  0.29937  1.0000
  O   O3        1.0  0.00127  0.18632  0.31490  1.0000
  O   O4        1.0  0.00132  0.18630  0.35511  1.0000
  H   H12       1.0  0.00129  0.22119  0.37042  1.0000
  H   H13       1.0  0.00129  0.29869  0.44794  1.0000
  O   O5        1.0  0.00132  0.31400  0.48281  1.0000
  O   O6        1.0  0.00127  0.35416  0.48273  1.0000
  H   H14       1.0  0.00121  0.36970  0.44781  1.0000
  H   H15       1.0  0.00010  0.44760  0.29905  1.0000
  O   O7        1.0  0.00010  0.48246  0.31434  1.0000
  O   O8        1.0  0.00010  0.48238  0.35449  1.0000
  H   H16       1.0  0.00102  0.44748  0.37002  1.0000
  Ni  Ni1       1.0  0.00111  0.33439  0.33474  1.0000
  C   C49       1.0  0.68823  0.00010  0.25733  1.0000
  C   C50       1.0  0.67778  0.00010  0.23959  1.0000
  C   C51       1.0  0.65716  0.00010  0.23957  1.0000
  C   C52       1.0  0.64682  0.00010  0.25728  1.0000
  C   C53       1.0  0.65764  0.00010  0.27452  1.0000
  C   C54       1.0  0.67752  0.00010  0.27455  1.0000
  C   C55       1.0  0.68381  0.00010  0.29392  1.0000
  N   N9        1.0  0.66764  0.00010  0.30610  1.0000
  C   C56       1.0  0.65142  0.00010  0.29389  1.0000
  N   N10       1.0  0.63218  0.00010  0.29952  1.0000
  C   C57       1.0  0.62656  0.00010  0.31874  1.0000
  N   N11       1.0  0.63877  0.00010  0.33495  1.0000
  C   C58       1.0  0.62662  0.00010  0.35112  1.0000
  C   C59       1.0  0.60725  0.00010  0.34481  1.0000
  C   C60       1.0  0.60719  0.00010  0.32496  1.0000
  N   N12       1.0  0.66766  0.00010  0.36385  1.0000
  C   C61       1.0  0.65151  0.00010  0.37599  1.0000
  N   N13       1.0  0.63230  0.00010  0.37033  1.0000
  C   C62       1.0  0.65781  0.00010  0.39538  1.0000
  C   C63       1.0  0.67767  0.00010  0.39542  1.0000
  C   C64       1.0  0.68388  0.00010  0.37606  1.0000
  C   C65       1.0  0.58994  0.00010  0.31415  1.0000
  C   C66       1.0  0.57226  0.00010  0.32445  1.0000
  C   C67       1.0  0.57230  0.00010  0.34504  1.0000
  C   C68       1.0  0.59004  0.00010  0.35550  1.0000
  C   C69       1.0  0.68848  0.00010  0.41267  1.0000
  C   C70       1.0  0.67817  0.00010  0.43037  1.0000
  C   C71       1.0  0.65757  0.00010  0.43031  1.0000
  C   C72       1.0  0.64712  0.00010  0.41258  1.0000
  N   N14       1.0  0.69654  0.00010  0.33499  1.0000
  C   C73       1.0  0.70873  0.00010  0.35120  1.0000
  N   N15       1.0  0.70309  0.00010  0.37043  1.0000
  C   C74       1.0  0.72811  0.00010  0.34499  1.0000
  C   C75       1.0  0.72807  0.00010  0.32512  1.0000
  C   C76       1.0  0.70869  0.00010  0.31881  1.0000
  C   C77       1.0  0.74529  0.00010  0.31442  1.0000
  C   C78       1.0  0.76304  0.00010  0.32487  1.0000
  C   C79       1.0  0.76306  0.00010  0.34548  1.0000
  C   C80       1.0  0.74534  0.00010  0.35581  1.0000
  N   N16       1.0  0.70303  0.00010  0.29958  1.0000
  H   H17       1.0  0.70332  0.00010  0.25756  1.0000
  H   H18       1.0  0.63172  0.00010  0.25747  1.0000
  H   H19       1.0  0.59013  0.00010  0.29905  1.0000
  H   H20       1.0  0.59028  0.00010  0.37059  1.0000
  H   H21       1.0  0.70356  0.00010  0.41249  1.0000
  H   H22       1.0  0.63203  0.00010  0.41233  1.0000
  H   H23       1.0  0.74506  0.00010  0.29932  1.0000
  H   H24       1.0  0.74515  0.00010  0.37091  1.0000
  C   C81       1.0  0.78075  0.00010  0.31481  1.0000
  C   C82       1.0  0.79845  0.00010  0.32512  1.0000
  C   C83       1.0  0.79848  0.00010  0.34551  1.0000
  C   C84       1.0  0.78080  0.00010  0.35568  1.0000
  C   C85       1.0  0.68784  0.00010  0.22186  1.0000
  C   C86       1.0  0.67753  0.00010  0.20415  1.0000
  C   C87       1.0  0.65715  0.00010  0.20413  1.0000
  C   C88       1.0  0.64697  0.00010  0.22180  1.0000
  C   C89       1.0  0.55450  0.00010  0.31425  1.0000
  C   C90       1.0  0.53684  0.00010  0.32442  1.0000
  C   C91       1.0  0.53690  0.00010  0.34480  1.0000
  C   C92       1.0  0.55460  0.00010  0.35510  1.0000
  C   C93       1.0  0.68837  0.00010  0.44813  1.0000
  C   C94       1.0  0.67821  0.00010  0.46577  1.0000
  C   C95       1.0  0.65785  0.00010  0.46573  1.0000
  C   C96       1.0  0.64754  0.00010  0.44802  1.0000
  H   H25       1.0  0.78076  0.00010  0.29972  1.0000
  O   O9        1.0  0.81569  0.00010  0.31528  1.0000
  O   O10       1.0  0.81575  0.00010  0.35549  1.0000
  H   H26       1.0  0.78088  0.00010  0.37079  1.0000
  H   H27       1.0  0.70293  0.00010  0.22184  1.0000
  O   O11       1.0  0.68737  0.00010  0.18691  1.0000
  O   O12       1.0  0.64716  0.00010  0.18685  1.0000
  H   H28       1.0  0.63188  0.00010  0.22173  1.0000
  H   H29       1.0  0.55441  0.00010  0.29917  1.0000
  O   O13       1.0  0.51956  0.00010  0.31445  1.0000
  O   O14       1.0  0.51967  0.00010  0.35462  1.0000
  H   H30       1.0  0.55460  0.00010  0.37018  1.0000
  H   H31       1.0  0.70343  0.00010  0.44821  1.0000
  O   O15       1.0  0.68817  0.00010  0.48305  1.0000
  O   O16       1.0  0.64802  0.00010  0.48295  1.0000
  H   H32       1.0  0.63246  0.00010  0.44803  1.0000
  Ni  Ni2       1.0  0.66765  0.00010  0.33497  1.0000
  C   C97       1.0  0.00010  0.74532  0.31438  1.0000
  C   C98       1.0  0.00010  0.76305  0.32484  1.0000
  C   C99       1.0  0.00010  0.76307  0.34545  1.0000
  C   C100      1.0  0.00010  0.74536  0.35579  1.0000
  C   C101      1.0  0.00010  0.72812  0.34497  1.0000
  C   C102      1.0  0.00010  0.72810  0.32509  1.0000
  C   C103      1.0  0.00010  0.70872  0.31880  1.0000
  N   N17       1.0  0.00010  0.69655  0.33497  1.0000
  C   C104      1.0  0.00010  0.70876  0.35119  1.0000
  N   N18       1.0  0.00010  0.70312  0.37043  1.0000
  C   C105      1.0  0.00010  0.68391  0.37605  1.0000
  N   N19       1.0  0.00010  0.66769  0.36384  1.0000
  C   C106      1.0  0.00010  0.65153  0.37598  1.0000
  C   C107      1.0  0.00010  0.65783  0.39535  1.0000
  C   C108      1.0  0.00010  0.67769  0.39541  1.0000
  N   N20       1.0  0.00010  0.63880  0.33495  1.0000
  C   C109      1.0  0.00010  0.62665  0.35110  1.0000
  N   N21       1.0  0.00010  0.63232  0.37031  1.0000
  C   C110      1.0  0.00010  0.60727  0.34480  1.0000
  C   C111      1.0  0.00010  0.60723  0.32494  1.0000
  C   C112      1.0  0.00010  0.62658  0.31873  1.0000
  C   C113      1.0  0.00010  0.68850  0.41266  1.0000
  C   C114      1.0  0.00010  0.67819  0.43035  1.0000
  C   C115      1.0  0.00010  0.65760  0.43030  1.0000
  C   C116      1.0  0.00010  0.64714  0.41257  1.0000
  C   C117      1.0  0.00010  0.58998  0.31413  1.0000
  C   C118      1.0  0.00010  0.57228  0.32444  1.0000
  C   C119      1.0  0.00010  0.57233  0.34503  1.0000
  C   C120      1.0  0.00010  0.59007  0.35549  1.0000
  N   N22       1.0  0.00010  0.66766  0.30607  1.0000
  C   C121      1.0  0.00010  0.65144  0.29388  1.0000
  N   N23       1.0  0.00010  0.63221  0.29952  1.0000
  C   C122      1.0  0.00010  0.65765  0.27451  1.0000
  C   C123      1.0  0.00010  0.67753  0.27455  1.0000
  C   C124      1.0  0.00010  0.68383  0.29392  1.0000
  C   C125      1.0  0.00010  0.68822  0.25732  1.0000
  C   C126      1.0  0.00010  0.67777  0.23958  1.0000
  C   C127      1.0  0.00010  0.65716  0.23955  1.0000
  C   C128      1.0  0.00010  0.64684  0.25727  1.0000
  N   N24       1.0  0.00010  0.70307  0.29958  1.0000
  H   H33       1.0  0.00010  0.74508  0.29929  1.0000
  H   H34       1.0  0.00010  0.74517  0.37089  1.0000
  H   H35       1.0  0.00010  0.70359  0.41248  1.0000
  H   H36       1.0  0.00010  0.63206  0.41232  1.0000
  H   H37       1.0  0.00010  0.59015  0.29905  1.0000
  H   H38       1.0  0.00010  0.59032  0.37058  1.0000
  H   H39       1.0  0.00010  0.70332  0.25756  1.0000
  H   H40       1.0  0.00010  0.63174  0.25746  1.0000
  C   C129      1.0  0.00010  0.68784  0.22187  1.0000
  C   C130      1.0  0.00010  0.67752  0.20416  1.0000
  C   C131      1.0  0.00010  0.65714  0.20414  1.0000
  C   C132      1.0  0.00010  0.64697  0.22181  1.0000
  C   C133      1.0  0.00010  0.78079  0.31478  1.0000
  C   C134      1.0  0.00010  0.79849  0.32508  1.0000
  C   C135      1.0  0.00010  0.79851  0.34546  1.0000
  C   C136      1.0  0.00010  0.78084  0.35564  1.0000
  C   C137      1.0  0.00010  0.68839  0.44811  1.0000
  C   C138      1.0  0.00010  0.67822  0.46576  1.0000
  C   C139      1.0  0.00010  0.65784  0.46571  1.0000
  C   C140      1.0  0.00010  0.64755  0.44800  1.0000
  C   C141      1.0  0.00010  0.55452  0.31424  1.0000
  C   C142      1.0  0.00010  0.53688  0.32440  1.0000
  C   C143      1.0  0.00010  0.53692  0.34476  1.0000
  C   C144      1.0  0.00010  0.55462  0.35506  1.0000
  H   H41       1.0  0.00010  0.70293  0.22185  1.0000
  O   O17       1.0  0.00010  0.68737  0.18693  1.0000
  O   O18       1.0  0.00010  0.64716  0.18686  1.0000
  H   H42       1.0  0.00010  0.63186  0.22174  1.0000
  H   H43       1.0  0.00010  0.78080  0.29968  1.0000
  O   O19       1.0  0.00010  0.81574  0.31524  1.0000
  O   O20       1.0  0.00010  0.81579  0.35545  1.0000
  H   H44       1.0  0.00010  0.78091  0.37073  1.0000
  H   H45       1.0  0.00010  0.70347  0.44819  1.0000
  O   O21       1.0  0.00010  0.68819  0.48305  1.0000
  O   O22       1.0  0.00010  0.64803  0.48293  1.0000
  H   H46       1.0  0.00010  0.63247  0.44800  1.0000
  H   H47       1.0  0.00010  0.55444  0.29918  1.0000
  O   O23       1.0  0.00010  0.51960  0.31444  1.0000
  O   O24       1.0  0.00010  0.51970  0.35459  1.0000
  H   H48       1.0  0.00010  0.55462  0.37015  1.0000
  Ni  Ni3       1.0  0.00010  0.66768  0.33496  1.0000
  C   C145      1.0  0.31371  0.00110  0.25709  1.0000
  C   C146      1.0  0.32415  0.00107  0.23936  1.0000
  C   C147      1.0  0.34477  0.00104  0.23936  1.0000
  C   C148      1.0  0.35512  0.00105  0.25708  1.0000
  C   C149      1.0  0.34431  0.00109  0.27431  1.0000
  C   C150      1.0  0.32443  0.00111  0.27432  1.0000
  C   C151      1.0  0.31815  0.00114  0.29369  1.0000
  N   N25       1.0  0.33434  0.00114  0.30588  1.0000
  C   C152      1.0  0.35055  0.00110  0.29368  1.0000
  N   N26       1.0  0.36979  0.00109  0.29933  1.0000
  C   C153      1.0  0.37543  0.00111  0.31855  1.0000
  N   N27       1.0  0.36323  0.00114  0.33476  1.0000
  C   C154      1.0  0.37539  0.00115  0.35093  1.0000
  C   C155      1.0  0.39476  0.00112  0.34464  1.0000
  C   C156      1.0  0.39480  0.00109  0.32479  1.0000
  N   N28       1.0  0.33436  0.00122  0.36363  1.0000
  C   C157      1.0  0.35053  0.00121  0.37578  1.0000
  N   N29       1.0  0.36973  0.00118  0.37014  1.0000
  C   C158      1.0  0.34424  0.00124  0.39516  1.0000
  C   C159      1.0  0.32438  0.00127  0.39519  1.0000
  C   C160      1.0  0.31816  0.00125  0.37583  1.0000
  C   C161      1.0  0.41204  0.00105  0.31399  1.0000
  C   C162      1.0  0.42974  0.00104  0.32431  1.0000
  C   C163      1.0  0.42971  0.00107  0.34490  1.0000
  C   C164      1.0  0.41198  0.00111  0.35535  1.0000
  C   C165      1.0  0.31358  0.00131  0.41243  1.0000
  C   C166      1.0  0.32391  0.00132  0.43014  1.0000
  C   C167      1.0  0.34450  0.00129  0.43010  1.0000
  C   C168      1.0  0.35494  0.00125  0.41237  1.0000
  N   N30       1.0  0.30547  0.00121  0.33474  1.0000
  C   C169      1.0  0.29328  0.00125  0.35095  1.0000
  N   N31       1.0  0.29894  0.00127  0.37018  1.0000
  C   C170      1.0  0.27390  0.00127  0.34472  1.0000
  C   C171      1.0  0.27393  0.00124  0.32485  1.0000
  C   C172      1.0  0.29329  0.00121  0.31856  1.0000
  C   C173      1.0  0.25669  0.00125  0.31414  1.0000
  C   C174      1.0  0.23896  0.00128  0.32457  1.0000
  C   C175      1.0  0.23895  0.00131  0.34518  1.0000
  C   C176      1.0  0.25667  0.00130  0.35553  1.0000
  N   N32       1.0  0.29894  0.00118  0.29933  1.0000
  H   H49       1.0  0.29862  0.00112  0.25731  1.0000
  H   H50       1.0  0.37022  0.00103  0.25728  1.0000
  H   H51       1.0  0.41185  0.00103  0.29890  1.0000
  H   H52       1.0  0.41175  0.00113  0.37043  1.0000
  H   H53       1.0  0.29850  0.00132  0.41224  1.0000
  H   H54       1.0  0.37003  0.00123  0.41214  1.0000
  H   H55       1.0  0.25692  0.00123  0.29904  1.0000
  H   H56       1.0  0.25688  0.00132  0.37063  1.0000
  C   C177      1.0  0.22124  0.00129  0.31450  1.0000
  C   C178      1.0  0.20354  0.00133  0.32480  1.0000
  C   C179      1.0  0.20353  0.00135  0.34518  1.0000
  C   C180      1.0  0.22121  0.00135  0.35537  1.0000
  C   C181      1.0  0.31408  0.00105  0.22162  1.0000
  C   C182      1.0  0.32437  0.00102  0.20392  1.0000
  C   C183      1.0  0.34475  0.00010  0.20392  1.0000
  C   C184      1.0  0.35494  0.00100  0.22160  1.0000
  C   C185      1.0  0.44749  0.00101  0.31412  1.0000
  C   C186      1.0  0.46515  0.00100  0.32431  1.0000
  C   C187      1.0  0.46511  0.00103  0.34469  1.0000
  C   C188      1.0  0.44742  0.00106  0.35497  1.0000
  C   C189      1.0  0.31373  0.00135  0.44789  1.0000
  C   C190      1.0  0.32389  0.00136  0.46554  1.0000
  C   C191      1.0  0.34425  0.00134  0.46552  1.0000
  C   C192      1.0  0.35455  0.00130  0.44782  1.0000
  H   H57       1.0  0.22121  0.00127  0.29941  1.0000
  O   O25       1.0  0.18630  0.00134  0.31494  1.0000
  O   O26       1.0  0.18627  0.00139  0.35515  1.0000
  H   H58       1.0  0.22115  0.00137  0.37047  1.0000
  H   H59       1.0  0.29898  0.00107  0.22159  1.0000
  O   O27       1.0  0.31451  0.00101  0.18667  1.0000
  O   O28       1.0  0.35472  0.00010  0.18665  1.0000
  H   H60       1.0  0.37003  0.00010  0.22154  1.0000
  H   H61       1.0  0.44756  0.00010  0.29904  1.0000
  O   O29       1.0  0.48243  0.00010  0.31435  1.0000
  O   O30       1.0  0.48234  0.00102  0.35452  1.0000
  H   H62       1.0  0.44743  0.00108  0.37005  1.0000
  H   H63       1.0  0.29866  0.00137  0.44796  1.0000
  O   O31       1.0  0.31395  0.00140  0.48282  1.0000
  O   O32       1.0  0.35410  0.00135  0.48274  1.0000
  H   H64       1.0  0.36963  0.00128  0.44784  1.0000
  Ni  Ni4       1.0  0.33435  0.00118  0.33475  1.0000
  C   C193      1.0  0.00108  0.74555  0.68889  1.0000
  C   C194      1.0  0.00104  0.76328  0.67845  1.0000
  C   C195      1.0  0.00102  0.76328  0.65783  1.0000
  C   C196      1.0  0.00103  0.74557  0.64748  1.0000
  C   C197      1.0  0.00106  0.72833  0.65829  1.0000
  C   C198      1.0  0.00109  0.72832  0.67817  1.0000
  C   C199      1.0  0.00112  0.70896  0.68444  1.0000
  N   N33       1.0  0.00111  0.69677  0.66826  1.0000
  C   C200      1.0  0.00108  0.70897  0.65205  1.0000
  N   N34       1.0  0.00106  0.70331  0.63281  1.0000
  C   C201      1.0  0.00108  0.68409  0.62717  1.0000
  N   N35       1.0  0.00111  0.66789  0.63937  1.0000
  C   C202      1.0  0.00112  0.65172  0.62721  1.0000
  C   C203      1.0  0.00109  0.65800  0.60784  1.0000
  C   C204      1.0  0.00106  0.67786  0.60780  1.0000
  N   N36       1.0  0.00119  0.63902  0.66823  1.0000
  C   C205      1.0  0.00118  0.62686  0.65207  1.0000
  N   N37       1.0  0.00115  0.63251  0.63287  1.0000
  C   C206      1.0  0.00121  0.60748  0.65836  1.0000
  C   C207      1.0  0.00124  0.60746  0.67821  1.0000
  C   C208      1.0  0.00122  0.62682  0.68444  1.0000
  C   C209      1.0  0.00103  0.68865  0.59056  1.0000
  C   C210      1.0  0.00102  0.67834  0.57287  1.0000
  C   C211      1.0  0.00104  0.65775  0.57290  1.0000
  C   C212      1.0  0.00108  0.64730  0.59062  1.0000
  C   C213      1.0  0.00127  0.59022  0.68901  1.0000
  C   C214      1.0  0.00128  0.57251  0.67869  1.0000
  C   C215      1.0  0.00126  0.57255  0.65809  1.0000
  C   C216      1.0  0.00122  0.59027  0.64765  1.0000
  N   N38       1.0  0.00119  0.66790  0.69713  1.0000
  C   C217      1.0  0.00122  0.65170  0.70931  1.0000
  N   N39       1.0  0.00124  0.63246  0.70366  1.0000
  C   C218      1.0  0.00124  0.65792  0.72869  1.0000
  C   C219      1.0  0.00121  0.67780  0.72867  1.0000
  C   C220      1.0  0.00118  0.68408  0.70930  1.0000
  C   C221      1.0  0.00122  0.68851  0.74590  1.0000
  C   C222      1.0  0.00125  0.67807  0.76364  1.0000
  C   C223      1.0  0.00128  0.65746  0.76365  1.0000
  C   C224      1.0  0.00127  0.64712  0.74592  1.0000
  N   N40       1.0  0.00115  0.70332  0.70365  1.0000
  H   H65       1.0  0.00110  0.74533  0.70398  1.0000
  H   H66       1.0  0.00101  0.74536  0.63238  1.0000
  H   H67       1.0  0.00101  0.70375  0.59076  1.0000
  H   H68       1.0  0.00110  0.63221  0.59085  1.0000
  H   H69       1.0  0.00129  0.59040  0.70409  1.0000
  H   H70       1.0  0.00120  0.59051  0.63257  1.0000
  H   H71       1.0  0.00120  0.70360  0.74568  1.0000
  H   H72       1.0  0.00129  0.63202  0.74572  1.0000
  C   C225      1.0  0.00126  0.68815  0.78136  1.0000
  C   C226      1.0  0.00130  0.67785  0.79905  1.0000
  C   C227      1.0  0.00132  0.65747  0.79906  1.0000
  C   C228      1.0  0.00131  0.64728  0.78138  1.0000
  C   C229      1.0  0.00103  0.78102  0.68852  1.0000
  C   C230      1.0  0.00010  0.79872  0.67823  1.0000
  C   C231      1.0  0.00010  0.79873  0.65785  1.0000
  C   C232      1.0  0.00010  0.78104  0.64766  1.0000
  C   C233      1.0  0.00010  0.68852  0.55511  1.0000
  C   C234      1.0  0.00010  0.67833  0.53745  1.0000
  C   C235      1.0  0.00100  0.65796  0.53749  1.0000
  C   C236      1.0  0.00104  0.64768  0.55519  1.0000
  C   C237      1.0  0.00132  0.55476  0.68887  1.0000
  C   C238      1.0  0.00133  0.53711  0.67870  1.0000
  C   C239      1.0  0.00130  0.53713  0.65834  1.0000
  C   C240      1.0  0.00127  0.55483  0.64805  1.0000
  H   H73       1.0  0.00125  0.70324  0.78138  1.0000
  O   O33       1.0  0.00131  0.68771  0.81629  1.0000
  O   O34       1.0  0.00136  0.64750  0.81632  1.0000
  H   H74       1.0  0.00133  0.63217  0.78144  1.0000
  H   H75       1.0  0.00105  0.78105  0.70362  1.0000
  O   O35       1.0  0.00010  0.81597  0.68809  1.0000
  O   O36       1.0  0.00010  0.81599  0.64788  1.0000
  H   H76       1.0  0.00010  0.78110  0.63257  1.0000
  H   H77       1.0  0.00010  0.70360  0.55504  1.0000
  O   O37       1.0  0.00010  0.68829  0.52018  1.0000
  O   O38       1.0  0.00010  0.64813  0.52026  1.0000
  H   H78       1.0  0.00105  0.63260  0.55517  1.0000
  H   H79       1.0  0.00133  0.55469  0.70394  1.0000
  O   O39       1.0  0.00136  0.51983  0.68865  1.0000
  O   O40       1.0  0.00131  0.51991  0.64850  1.0000
  H   H80       1.0  0.00125  0.55481  0.63297  1.0000
  Ni  Ni5       1.0  0.00115  0.66790  0.66825  1.0000
  C   C241      1.0  0.31399  0.00224  0.74569  1.0000
  C   C242      1.0  0.32444  0.00224  0.76342  1.0000
  C   C243      1.0  0.34506  0.00223  0.76344  1.0000
  C   C244      1.0  0.35540  0.00223  0.74574  1.0000
  C   C245      1.0  0.34458  0.00223  0.72849  1.0000
  C   C246      1.0  0.32470  0.00223  0.72847  1.0000
  C   C247      1.0  0.31840  0.00223  0.70909  1.0000
  N   N41       1.0  0.33458  0.00222  0.69692  1.0000
  C   C248      1.0  0.35080  0.00222  0.70913  1.0000
  N   N42       1.0  0.37004  0.00221  0.70349  1.0000
  C   C249      1.0  0.37566  0.00221  0.68428  1.0000
  N   N43       1.0  0.36344  0.00221  0.66806  1.0000
  C   C250      1.0  0.37559  0.00220  0.65190  1.0000
  C   C251      1.0  0.39496  0.00220  0.65820  1.0000
  C   C252      1.0  0.39502  0.00220  0.67806  1.0000
  N   N44       1.0  0.33456  0.00221  0.63917  1.0000
  C   C253      1.0  0.35071  0.00220  0.62702  1.0000
  N   N45       1.0  0.36992  0.00220  0.63269  1.0000
  C   C254      1.0  0.34441  0.00220  0.60764  1.0000
  C   C255      1.0  0.32455  0.00220  0.60760  1.0000
  C   C256      1.0  0.31834  0.00221  0.62695  1.0000
  C   C257      1.0  0.41227  0.00220  0.68887  1.0000
  C   C258      1.0  0.42996  0.00219  0.67857  1.0000
  C   C259      1.0  0.42991  0.00219  0.65797  1.0000
  C   C260      1.0  0.41218  0.00219  0.64751  1.0000
  C   C261      1.0  0.31374  0.00220  0.59035  1.0000
  C   C262      1.0  0.32405  0.00219  0.57265  1.0000
  C   C263      1.0  0.34464  0.00219  0.57270  1.0000
  C   C264      1.0  0.35510  0.00219  0.59044  1.0000
  N   N46       1.0  0.30568  0.00222  0.66803  1.0000
  C   C265      1.0  0.29348  0.00222  0.65182  1.0000
  N   N47       1.0  0.29913  0.00221  0.63258  1.0000
  C   C266      1.0  0.27411  0.00222  0.65803  1.0000
  C   C267      1.0  0.27415  0.00223  0.67790  1.0000
  C   C268      1.0  0.29352  0.00223  0.68420  1.0000
  C   C269      1.0  0.25693  0.00224  0.68860  1.0000
  C   C270      1.0  0.23918  0.00224  0.67814  1.0000
  C   C271      1.0  0.23916  0.00223  0.65753  1.0000
  C   C272      1.0  0.25687  0.00223  0.64721  1.0000
  N   N48       1.0  0.29919  0.00223  0.70344  1.0000
  H   H81       1.0  0.29890  0.00224  0.74546  1.0000
  H   H82       1.0  0.37050  0.00222  0.74554  1.0000
  H   H83       1.0  0.41209  0.00220  0.70396  1.0000
  H   H84       1.0  0.41193  0.00219  0.63243  1.0000
  H   H85       1.0  0.29866  0.00220  0.59052  1.0000
  H   H86       1.0  0.37019  0.00219  0.59069  1.0000
  H   H87       1.0  0.25716  0.00224  0.70369  1.0000
  H   H88       1.0  0.25707  0.00222  0.63211  1.0000
  C   C273      1.0  0.22147  0.00224  0.68821  1.0000
  C   C274      1.0  0.20377  0.00225  0.67789  1.0000
  C   C275      1.0  0.20374  0.00224  0.65751  1.0000
  C   C276      1.0  0.22141  0.00224  0.64734  1.0000
  C   C277      1.0  0.31438  0.00225  0.78116  1.0000
  C   C278      1.0  0.32469  0.00225  0.79886  1.0000
  C   C279      1.0  0.34507  0.00224  0.79889  1.0000
  C   C280      1.0  0.35525  0.00224  0.78121  1.0000
  C   C281      1.0  0.44772  0.00219  0.68876  1.0000
  C   C282      1.0  0.46538  0.00218  0.67859  1.0000
  C   C283      1.0  0.46532  0.00218  0.65822  1.0000
  C   C284      1.0  0.44762  0.00218  0.64792  1.0000
  C   C285      1.0  0.31385  0.00219  0.55489  1.0000
  C   C286      1.0  0.32401  0.00218  0.53725  1.0000
  C   C287      1.0  0.34437  0.00218  0.53729  1.0000
  C   C288      1.0  0.35467  0.00218  0.55499  1.0000
  H   H89       1.0  0.22146  0.00225  0.70330  1.0000
  O   O41       1.0  0.18653  0.00225  0.68774  1.0000
  O   O42       1.0  0.18647  0.00224  0.64753  1.0000
  H   H90       1.0  0.22134  0.00223  0.63223  1.0000
  H   H91       1.0  0.29929  0.00225  0.78117  1.0000
  O   O43       1.0  0.31484  0.00225  0.81611  1.0000
  O   O44       1.0  0.35506  0.00224  0.81616  1.0000
  H   H92       1.0  0.37034  0.00223  0.78128  1.0000
  H   H93       1.0  0.44780  0.00219  0.70385  1.0000
  O   O45       1.0  0.48266  0.00218  0.68856  1.0000
  O   O46       1.0  0.48254  0.00217  0.64840  1.0000
  H   H94       1.0  0.44762  0.00218  0.63284  1.0000
  H   H95       1.0  0.29878  0.00219  0.55481  1.0000
  O   O47       1.0  0.31405  0.00218  0.51996  1.0000
  O   O48       1.0  0.35420  0.00217  0.52007  1.0000
  H   H96       1.0  0.36976  0.00218  0.55499  1.0000
  Ni  Ni6       1.0  0.33457  0.00221  0.66805  1.0000
  C   C289      1.0  0.00215  0.25697  0.68860  1.0000
  C   C290      1.0  0.00215  0.23924  0.67815  1.0000
  C   C291      1.0  0.00214  0.23922  0.65753  1.0000
  C   C292      1.0  0.00214  0.25692  0.64719  1.0000
  C   C293      1.0  0.00214  0.27417  0.65802  1.0000
  C   C294      1.0  0.00214  0.27419  0.67789  1.0000
  C   C295      1.0  0.00214  0.29357  0.68419  1.0000
  N   N49       1.0  0.00213  0.30574  0.66801  1.0000
  C   C296      1.0  0.00213  0.29353  0.65179  1.0000
  N   N50       1.0  0.00212  0.29917  0.63255  1.0000
  C   C297      1.0  0.00212  0.31838  0.62693  1.0000
  N   N51       1.0  0.00212  0.33460  0.63915  1.0000
  C   C298      1.0  0.00211  0.35076  0.62700  1.0000
  C   C299      1.0  0.00211  0.34446  0.60763  1.0000
  C   C300      1.0  0.00211  0.32460  0.60757  1.0000
  N   N52       1.0  0.00212  0.36349  0.66804  1.0000
  C   C301      1.0  0.00211  0.37563  0.65188  1.0000
  N   N53       1.0  0.00211  0.36997  0.63268  1.0000
  C   C302      1.0  0.00211  0.39502  0.65818  1.0000
  C   C303      1.0  0.00212  0.39506  0.67804  1.0000
  C   C304      1.0  0.00212  0.37570  0.68425  1.0000
  C   C305      1.0  0.00211  0.31379  0.59032  1.0000
  C   C306      1.0  0.00210  0.32409  0.57263  1.0000
  C   C307      1.0  0.00210  0.34468  0.57268  1.0000
  C   C308      1.0  0.00210  0.35514  0.59042  1.0000
  C   C309      1.0  0.00211  0.41231  0.68885  1.0000
  C   C310      1.0  0.00211  0.43001  0.67854  1.0000
  C   C311      1.0  0.00210  0.42996  0.65795  1.0000
  C   C312      1.0  0.00210  0.41222  0.64749  1.0000
  N   N54       1.0  0.00213  0.33463  0.69691  1.0000
  C   C313      1.0  0.00213  0.35084  0.70911  1.0000
  N   N55       1.0  0.00213  0.37007  0.70346  1.0000
  C   C314      1.0  0.00214  0.34463  0.72848  1.0000
  C   C315      1.0  0.00214  0.32476  0.72844  1.0000
  C   C316      1.0  0.00214  0.31846  0.70907  1.0000
  C   C317      1.0  0.00215  0.31406  0.74566  1.0000
  C   C318      1.0  0.00215  0.32452  0.76341  1.0000
  C   C319      1.0  0.00215  0.34512  0.76343  1.0000
  C   C320      1.0  0.00214  0.35545  0.74572  1.0000
  N   N56       1.0  0.00214  0.29922  0.70340  1.0000
  H   H97       1.0  0.00215  0.25720  0.70369  1.0000
  H   H98       1.0  0.00213  0.25712  0.63209  1.0000
  H   H99       1.0  0.00211  0.29870  0.59050  1.0000
  H   H100      1.0  0.00210  0.37023  0.59066  1.0000
  H   H101      1.0  0.00212  0.41213  0.70394  1.0000
  H   H102      1.0  0.00210  0.41197  0.63241  1.0000
  H   H103      1.0  0.00216  0.29897  0.74543  1.0000
  H   H104      1.0  0.00214  0.37055  0.74552  1.0000
  C   C321      1.0  0.00216  0.31445  0.78112  1.0000
  C   C322      1.0  0.00216  0.32477  0.79882  1.0000
  C   C323      1.0  0.00216  0.34515  0.79885  1.0000
  C   C324      1.0  0.00215  0.35532  0.78117  1.0000
  C   C325      1.0  0.00216  0.22150  0.68821  1.0000
  C   C326      1.0  0.00216  0.20380  0.67790  1.0000
  C   C327      1.0  0.00215  0.20377  0.65752  1.0000
  C   C328      1.0  0.00214  0.22145  0.64735  1.0000
  C   C329      1.0  0.00210  0.31389  0.55487  1.0000
  C   C330      1.0  0.00209  0.32407  0.53722  1.0000
  C   C331      1.0  0.00209  0.34444  0.53728  1.0000
  C   C332      1.0  0.00209  0.35474  0.55498  1.0000
  C   C333      1.0  0.00211  0.44777  0.68874  1.0000
  C   C334      1.0  0.00210  0.46541  0.67859  1.0000
  C   C335      1.0  0.00209  0.46537  0.65823  1.0000
  C   C336      1.0  0.00210  0.44767  0.64792  1.0000
  H   H105      1.0  0.00217  0.29936  0.78113  1.0000
  O   O49       1.0  0.00217  0.31492  0.81606  1.0000
  O   O50       1.0  0.00216  0.35513  0.81612  1.0000
  H   H106      1.0  0.00215  0.37043  0.78125  1.0000
  H   H107      1.0  0.00216  0.22149  0.70330  1.0000
  O   O51       1.0  0.00216  0.18655  0.68775  1.0000
  O   O52       1.0  0.00215  0.18650  0.64753  1.0000
  H   H108      1.0  0.00214  0.22138  0.63225  1.0000
  H   H109      1.0  0.00210  0.29881  0.55479  1.0000
  O   O53       1.0  0.00209  0.31409  0.51994  1.0000
  O   O54       1.0  0.00208  0.35426  0.52005  1.0000
  H   H110      1.0  0.00209  0.36982  0.55498  1.0000
  H   H111      1.0  0.00211  0.44785  0.70381  1.0000
  O   O55       1.0  0.00210  0.48269  0.68854  1.0000
  O   O56       1.0  0.00209  0.48259  0.64840  1.0000
  H   H112      1.0  0.00209  0.44767  0.63284  1.0000
  Ni  Ni7       1.0  0.00213  0.33461  0.66803  1.0000
  C   C337      1.0  0.68851  0.00125  0.74592  1.0000
  C   C338      1.0  0.67807  0.00128  0.76365  1.0000
  C   C339      1.0  0.65745  0.00131  0.76365  1.0000
  C   C340      1.0  0.64710  0.00130  0.74593  1.0000
  C   C341      1.0  0.65791  0.00127  0.72870  1.0000
  C   C342      1.0  0.67779  0.00124  0.72869  1.0000
  C   C343      1.0  0.68406  0.00121  0.70932  1.0000
  N   N57       1.0  0.66788  0.00121  0.69713  1.0000
  C   C344      1.0  0.65167  0.00125  0.70933  1.0000
  N   N58       1.0  0.63242  0.00127  0.70368  1.0000
  C   C345      1.0  0.62679  0.00125  0.68446  1.0000
  N   N59       1.0  0.63899  0.00122  0.66825  1.0000
  C   C346      1.0  0.62683  0.00121  0.65208  1.0000
  C   C347      1.0  0.60746  0.00124  0.65837  1.0000
  C   C348      1.0  0.60742  0.00127  0.67822  1.0000
  N   N60       1.0  0.66785  0.00114  0.63938  1.0000
  C   C349      1.0  0.65169  0.00115  0.62723  1.0000
  N   N61       1.0  0.63249  0.00118  0.63287  1.0000
  C   C350      1.0  0.65798  0.00112  0.60785  1.0000
  C   C351      1.0  0.67784  0.00109  0.60782  1.0000
  C   C352      1.0  0.68406  0.00111  0.62718  1.0000
  C   C353      1.0  0.59018  0.00131  0.68902  1.0000
  C   C354      1.0  0.57248  0.00132  0.67870  1.0000
  C   C355      1.0  0.57251  0.00129  0.65811  1.0000
  C   C356      1.0  0.59024  0.00125  0.64766  1.0000
  C   C357      1.0  0.68863  0.00105  0.59058  1.0000
  C   C358      1.0  0.67831  0.00104  0.57287  1.0000
  C   C359      1.0  0.65771  0.00107  0.57291  1.0000
  C   C360      1.0  0.64727  0.00111  0.59063  1.0000
  N   N62       1.0  0.69675  0.00114  0.66827  1.0000
  C   C361      1.0  0.70894  0.00110  0.65206  1.0000
  N   N63       1.0  0.70328  0.00109  0.63283  1.0000
  C   C362      1.0  0.72831  0.00109  0.65829  1.0000
  C   C363      1.0  0.72829  0.00111  0.67816  1.0000
  C   C364      1.0  0.70892  0.00114  0.68445  1.0000
  C   C365      1.0  0.74552  0.00110  0.68887  1.0000
  C   C366      1.0  0.76326  0.00106  0.67843  1.0000
  C   C367      1.0  0.76327  0.00104  0.65782  1.0000
  C   C368      1.0  0.74554  0.00105  0.64748  1.0000
  N   N64       1.0  0.70328  0.00118  0.70368  1.0000
  H   H113      1.0  0.70360  0.00123  0.74570  1.0000
  H   H114      1.0  0.63200  0.00132  0.74573  1.0000
  H   H115      1.0  0.59037  0.00132  0.70411  1.0000
  H   H116      1.0  0.59047  0.00123  0.63258  1.0000
  H   H117      1.0  0.70372  0.00103  0.59076  1.0000
  H   H118      1.0  0.63219  0.00113  0.59087  1.0000
  H   H119      1.0  0.74530  0.00112  0.70397  1.0000
  H   H120      1.0  0.74534  0.00103  0.63238  1.0000
  C   C369      1.0  0.78098  0.00105  0.68851  1.0000
  C   C370      1.0  0.79868  0.00102  0.67821  1.0000
  C   C371      1.0  0.79869  0.00010  0.65783  1.0000
  C   C372      1.0  0.78100  0.00100  0.64764  1.0000
  C   C373      1.0  0.68815  0.00129  0.78139  1.0000
  C   C374      1.0  0.67785  0.00133  0.79908  1.0000
  C   C375      1.0  0.65747  0.00135  0.79909  1.0000
  C   C376      1.0  0.64728  0.00135  0.78141  1.0000
  C   C377      1.0  0.55473  0.00135  0.68889  1.0000
  C   C378      1.0  0.53707  0.00136  0.67870  1.0000
  C   C379      1.0  0.53711  0.00134  0.65832  1.0000
  C   C380      1.0  0.55480  0.00130  0.64804  1.0000
  C   C381      1.0  0.68849  0.00101  0.55512  1.0000
  C   C382      1.0  0.67832  0.00100  0.53747  1.0000
  C   C383      1.0  0.65796  0.00103  0.53749  1.0000
  C   C384      1.0  0.64767  0.00106  0.55519  1.0000
  H   H121      1.0  0.78101  0.00107  0.70360  1.0000
  O   O57       1.0  0.81592  0.00101  0.68807  1.0000
  O   O58       1.0  0.81595  0.00010  0.64786  1.0000
  H   H122      1.0  0.78106  0.00010  0.63253  1.0000
  H   H123      1.0  0.70324  0.00127  0.78142  1.0000
  O   O59       1.0  0.68771  0.00134  0.81634  1.0000
  O   O60       1.0  0.64750  0.00139  0.81636  1.0000
  H   H124      1.0  0.63219  0.00137  0.78147  1.0000
  H   H125      1.0  0.55466  0.00137  0.70397  1.0000
  O   O61       1.0  0.51979  0.00140  0.68866  1.0000
  O   O62       1.0  0.51987  0.00135  0.64849  1.0000
  H   H126      1.0  0.55479  0.00128  0.63296  1.0000
  H   H127      1.0  0.70356  0.00010  0.55505  1.0000
  O   O63       1.0  0.68827  0.00010  0.52019  1.0000
  O   O64       1.0  0.64812  0.00102  0.52027  1.0000
  H   H128      1.0  0.63258  0.00108  0.55517  1.0000
  Ni  Ni8       1.0  0.66787  0.00118  0.66826  1.0000
  C   C385      1.0  0.31400  0.25697  0.00010  1.0000
  C   C386      1.0  0.32445  0.23924  0.00010  1.0000
  C   C387      1.0  0.34507  0.23922  0.00010  1.0000
  C   C388      1.0  0.35541  0.25693  0.00010  1.0000
  C   C389      1.0  0.34459  0.27417  0.00010  1.0000
  C   C390      1.0  0.32471  0.27419  0.00010  1.0000
  C   C391      1.0  0.31842  0.29357  0.00010  1.0000
  N   N65       1.0  0.33459  0.30574  0.00010  1.0000
  C   C392      1.0  0.35081  0.29353  0.00010  1.0000
  N   N66       1.0  0.37005  0.29917  0.00010  1.0000
  C   C393      1.0  0.37567  0.31838  0.00010  1.0000
  N   N67       1.0  0.36346  0.33460  0.00010  1.0000
  C   C394      1.0  0.37561  0.35076  0.00010  1.0000
  C   C395      1.0  0.39498  0.34446  0.00010  1.0000
  C   C396      1.0  0.39504  0.32460  0.00010  1.0000
  N   N68       1.0  0.33457  0.36349  0.00010  1.0000
  C   C397      1.0  0.35073  0.37563  0.00010  1.0000
  N   N69       1.0  0.36993  0.36997  0.00010  1.0000
  C   C398      1.0  0.34442  0.39502  0.00010  1.0000
  C   C399      1.0  0.32457  0.39506  0.00010  1.0000
  C   C400      1.0  0.31835  0.37571  0.00010  1.0000
  C   C401      1.0  0.41229  0.31379  0.00010  1.0000
  C   C402      1.0  0.42997  0.32409  0.00010  1.0000
  C   C403      1.0  0.42993  0.34468  0.00010  1.0000
  C   C404      1.0  0.41219  0.35514  0.00010  1.0000
  C   C405      1.0  0.31375  0.41231  0.00010  1.0000
  C   C406      1.0  0.32407  0.43001  0.00010  1.0000
  C   C407      1.0  0.34466  0.42996  0.00010  1.0000
  C   C408      1.0  0.35511  0.41222  0.00010  1.0000
  N   N70       1.0  0.30570  0.33463  0.00010  1.0000
  C   C409      1.0  0.29350  0.35085  0.00010  1.0000
  N   N71       1.0  0.29914  0.37008  0.00010  1.0000
  C   C410      1.0  0.27413  0.34464  0.00010  1.0000
  C   C411      1.0  0.27417  0.32476  0.00010  1.0000
  C   C412      1.0  0.29354  0.31846  0.00010  1.0000
  C   C413      1.0  0.25694  0.31407  0.00010  1.0000
  C   C414      1.0  0.23920  0.32452  0.00010  1.0000
  C   C415      1.0  0.23917  0.34513  0.00010  1.0000
  C   C416      1.0  0.25689  0.35546  0.00010  1.0000
  N   N72       1.0  0.29920  0.29922  0.00010  1.0000
  H   H129      1.0  0.29891  0.25721  0.00010  1.0000
  H   H130      1.0  0.37051  0.25712  0.00010  1.0000
  H   H131      1.0  0.41210  0.29870  0.00010  1.0000
  H   H132      1.0  0.41195  0.37023  0.00010  1.0000
  H   H133      1.0  0.29867  0.41214  0.00010  1.0000
  H   H134      1.0  0.37020  0.41197  0.00010  1.0000
  H   H135      1.0  0.25717  0.29897  0.00010  1.0000
  H   H136      1.0  0.25708  0.37056  0.00010  1.0000
  C   C417      1.0  0.22148  0.31446  0.00010  1.0000
  C   C418      1.0  0.20378  0.32477  0.00010  1.0000
  C   C419      1.0  0.20375  0.34516  0.00010  1.0000
  C   C420      1.0  0.22143  0.35533  0.00010  1.0000
  C   C421      1.0  0.31439  0.22150  0.00010  1.0000
  C   C422      1.0  0.32470  0.20380  0.00010  1.0000
  C   C423      1.0  0.34508  0.20377  0.00010  1.0000
  C   C424      1.0  0.35526  0.22145  0.00010  1.0000
  C   C425      1.0  0.44773  0.31389  0.00010  1.0000
  C   C426      1.0  0.46539  0.32406  0.00010  1.0000
  C   C427      1.0  0.46533  0.34444  0.00010  1.0000
  C   C428      1.0  0.44763  0.35474  0.00010  1.0000
  C   C429      1.0  0.31387  0.44777  0.00010  1.0000
  C   C430      1.0  0.32402  0.46541  0.00010  1.0000
  C   C431      1.0  0.34438  0.46537  0.00010  1.0000
  C   C432      1.0  0.35469  0.44767  0.00010  1.0000
  H   H137      1.0  0.22147  0.29937  0.00010  1.0000
  O   O65       1.0  0.18654  0.31493  0.00010  1.0000
  O   O66       1.0  0.18648  0.35514  0.00010  1.0000
  H   H138      1.0  0.22136  0.37043  0.00010  1.0000
  H   H139      1.0  0.29930  0.22149  0.00010  1.0000
  O   O67       1.0  0.31486  0.18655  0.00010  1.0000
  O   O68       1.0  0.35507  0.18650  0.00010  1.0000
  H   H140      1.0  0.37035  0.22138  0.00010  1.0000
  H   H141      1.0  0.44782  0.29881  0.00010  1.0000
  O   O69       1.0  0.48267  0.31409  0.00010  1.0000
  O   O70       1.0  0.48256  0.35426  0.00010  1.0000
  H   H142      1.0  0.44763  0.36982  0.00010  1.0000
  H   H143      1.0  0.29880  0.44785  0.00010  1.0000
  O   O71       1.0  0.31406  0.48269  0.00010  1.0000
  O   O72       1.0  0.35421  0.48259  0.00010  1.0000
  H   H144      1.0  0.36977  0.44767  0.00010  1.0000
  Ni  Ni9       1.0  0.33458  0.33461  0.00010  1.0000
  C   C433      1.0  0.31371  0.74555  0.00154  1.0000
  C   C434      1.0  0.32415  0.76328  0.00157  1.0000
  C   C435      1.0  0.34477  0.76329  0.00160  1.0000
  C   C436      1.0  0.35513  0.74557  0.00159  1.0000
  C   C437      1.0  0.34432  0.72833  0.00155  1.0000
  C   C438      1.0  0.32444  0.72833  0.00153  1.0000
  C   C439      1.0  0.31816  0.70896  0.00150  1.0000
  N   N73       1.0  0.33435  0.69677  0.00150  1.0000
  C   C440      1.0  0.35056  0.70897  0.00154  1.0000
  N   N74       1.0  0.36980  0.70331  0.00155  1.0000
  C   C441      1.0  0.37544  0.68410  0.00154  1.0000
  N   N75       1.0  0.36324  0.66789  0.00150  1.0000
  C   C442      1.0  0.37540  0.65172  0.00150  1.0000
  C   C443      1.0  0.39477  0.65800  0.00153  1.0000
  C   C444      1.0  0.39481  0.67786  0.00155  1.0000
  N   N76       1.0  0.33437  0.63902  0.00143  1.0000
  C   C445      1.0  0.35054  0.62686  0.00144  1.0000
  N   N77       1.0  0.36974  0.63251  0.00147  1.0000
  C   C446      1.0  0.34425  0.60749  0.00140  1.0000
  C   C447      1.0  0.32439  0.60746  0.00138  1.0000
  C   C448      1.0  0.31817  0.62682  0.00140  1.0000
  C   C449      1.0  0.41205  0.68866  0.00159  1.0000
  C   C450      1.0  0.42974  0.67834  0.00160  1.0000
  C   C451      1.0  0.42972  0.65775  0.00157  1.0000
  C   C452      1.0  0.41199  0.64730  0.00154  1.0000
  C   C453      1.0  0.31360  0.59022  0.00135  1.0000
  C   C454      1.0  0.32392  0.57251  0.00134  1.0000
  C   C455      1.0  0.34452  0.57255  0.00136  1.0000
  C   C456      1.0  0.35496  0.59027  0.00140  1.0000
  N   N78       1.0  0.30547  0.66790  0.00143  1.0000
  C   C457      1.0  0.29329  0.65170  0.00140  1.0000
  N   N79       1.0  0.29895  0.63246  0.00138  1.0000
  C   C458      1.0  0.27391  0.65792  0.00138  1.0000
  C   C459      1.0  0.27394  0.67780  0.00141  1.0000
  C   C460      1.0  0.29330  0.68409  0.00144  1.0000
  C   C461      1.0  0.25670  0.68851  0.00140  1.0000
  C   C462      1.0  0.23897  0.67807  0.00136  1.0000
  C   C463      1.0  0.23896  0.65746  0.00134  1.0000
  C   C464      1.0  0.25668  0.64712  0.00135  1.0000
  N   N80       1.0  0.29895  0.70332  0.00147  1.0000
  H   H145      1.0  0.29862  0.74533  0.00152  1.0000
  H   H146      1.0  0.37023  0.74537  0.00161  1.0000
  H   H147      1.0  0.41185  0.70375  0.00161  1.0000
  H   H148      1.0  0.41176  0.63222  0.00152  1.0000
  H   H149      1.0  0.29851  0.59040  0.00133  1.0000
  H   H150      1.0  0.37004  0.59051  0.00141  1.0000
  H   H151      1.0  0.25692  0.70360  0.00142  1.0000
  H   H152      1.0  0.25689  0.63202  0.00133  1.0000
  C   C465      1.0  0.22125  0.68815  0.00135  1.0000
  C   C466      1.0  0.20355  0.67785  0.00132  1.0000
  C   C467      1.0  0.20354  0.65746  0.00129  1.0000
  C   C468      1.0  0.22122  0.64728  0.00130  1.0000
  C   C469      1.0  0.31408  0.78102  0.00158  1.0000
  C   C470      1.0  0.32437  0.79872  0.00162  1.0000
  C   C471      1.0  0.34475  0.79873  0.00164  1.0000
  C   C472      1.0  0.35494  0.78104  0.00163  1.0000
  C   C473      1.0  0.44750  0.68853  0.00163  1.0000
  C   C474      1.0  0.46516  0.67834  0.00164  1.0000
  C   C475      1.0  0.46512  0.65796  0.00161  1.0000
  C   C476      1.0  0.44743  0.64768  0.00158  1.0000
  C   C477      1.0  0.31374  0.55476  0.00130  1.0000
  C   C478      1.0  0.32391  0.53711  0.00129  1.0000
  C   C479      1.0  0.34427  0.53713  0.00132  1.0000
  C   C480      1.0  0.35456  0.55483  0.00135  1.0000
  H   H153      1.0  0.22122  0.70324  0.00137  1.0000
  O   O73       1.0  0.18631  0.68770  0.00131  1.0000
  O   O74       1.0  0.18628  0.64750  0.00126  1.0000
  H   H154      1.0  0.22117  0.63217  0.00129  1.0000
  H   H155      1.0  0.29898  0.78105  0.00156  1.0000
  O   O75       1.0  0.31451  0.81597  0.00163  1.0000
  O   O76       1.0  0.35472  0.81600  0.00168  1.0000
  H   H156      1.0  0.37004  0.78110  0.00165  1.0000
  H   H157      1.0  0.44757  0.70361  0.00165  1.0000
  O   O77       1.0  0.48243  0.68830  0.00167  1.0000
  O   O78       1.0  0.48235  0.64813  0.00162  1.0000
  H   H158      1.0  0.44744  0.63260  0.00156  1.0000
  H   H159      1.0  0.29867  0.55469  0.00128  1.0000
  O   O79       1.0  0.31397  0.51983  0.00126  1.0000
  O   O80       1.0  0.35412  0.51991  0.00131  1.0000
  H   H160      1.0  0.36965  0.55481  0.00137  1.0000
  Ni  Ni10      1.0  0.33436  0.66790  0.00147  1.0000
  C   C481      1.0  0.68852  0.25673  0.00144  1.0000
  C   C482      1.0  0.67808  0.23900  0.00140  1.0000
  C   C483      1.0  0.65747  0.23900  0.00138  1.0000
  C   C484      1.0  0.64711  0.25672  0.00139  1.0000
  C   C485      1.0  0.65792  0.27395  0.00142  1.0000
  C   C486      1.0  0.67780  0.27396  0.00145  1.0000
  C   C487      1.0  0.68408  0.29333  0.00148  1.0000
  N   N81       1.0  0.66789  0.30552  0.00147  1.0000
  C   C488      1.0  0.65168  0.29332  0.00144  1.0000
  N   N82       1.0  0.63244  0.29897  0.00142  1.0000
  C   C489      1.0  0.62680  0.31819  0.00144  1.0000
  N   N83       1.0  0.63900  0.33440  0.00147  1.0000
  C   C490      1.0  0.62684  0.35057  0.00147  1.0000
  C   C491      1.0  0.60747  0.34428  0.00144  1.0000
  C   C492      1.0  0.60743  0.32443  0.00142  1.0000
  N   N84       1.0  0.66787  0.36327  0.00154  1.0000
  C   C493      1.0  0.65170  0.37542  0.00153  1.0000
  N   N85       1.0  0.63250  0.36977  0.00150  1.0000
  C   C494      1.0  0.65799  0.39480  0.00157  1.0000
  C   C495      1.0  0.67785  0.39483  0.00159  1.0000
  C   C496      1.0  0.68407  0.37547  0.00157  1.0000
  C   C497      1.0  0.59019  0.31363  0.00138  1.0000
  C   C498      1.0  0.57249  0.32395  0.00137  1.0000
  C   C499      1.0  0.57252  0.34454  0.00140  1.0000
  C   C500      1.0  0.59025  0.35498  0.00143  1.0000
  C   C501      1.0  0.68864  0.41207  0.00162  1.0000
  C   C502      1.0  0.67832  0.42978  0.00163  1.0000
  C   C503      1.0  0.65772  0.42974  0.00161  1.0000
  C   C504      1.0  0.64728  0.41201  0.00157  1.0000
  N   N86       1.0  0.69676  0.33438  0.00154  1.0000
  C   C505      1.0  0.70895  0.35059  0.00158  1.0000
  N   N87       1.0  0.70329  0.36982  0.00159  1.0000
  C   C506      1.0  0.72833  0.34436  0.00159  1.0000
  C   C507      1.0  0.72830  0.32449  0.00157  1.0000
  C   C508      1.0  0.70894  0.31820  0.00154  1.0000
  C   C509      1.0  0.74554  0.31378  0.00158  1.0000
  C   C510      1.0  0.76327  0.32421  0.00161  1.0000
  C   C511      1.0  0.76328  0.34482  0.00164  1.0000
  C   C512      1.0  0.74556  0.35517  0.00163  1.0000
  N   N88       1.0  0.70329  0.29897  0.00151  1.0000
  H   H161      1.0  0.70361  0.25695  0.00146  1.0000
  H   H162      1.0  0.63201  0.25692  0.00137  1.0000
  H   H163      1.0  0.59039  0.29854  0.00137  1.0000
  H   H164      1.0  0.59048  0.37007  0.00145  1.0000
  H   H165      1.0  0.70373  0.41188  0.00164  1.0000
  H   H166      1.0  0.63220  0.41177  0.00155  1.0000
  H   H167      1.0  0.74532  0.29868  0.00156  1.0000
  H   H168      1.0  0.74535  0.37027  0.00164  1.0000
  C   C513      1.0  0.78099  0.31414  0.00162  1.0000
  C   C514      1.0  0.79869  0.32444  0.00165  1.0000
  C   C515      1.0  0.79870  0.34482  0.00168  1.0000
  C   C516      1.0  0.78102  0.35501  0.00167  1.0000
  C   C517      1.0  0.68816  0.22126  0.00139  1.0000
  C   C518      1.0  0.67787  0.20357  0.00136  1.0000
  C   C519      1.0  0.65749  0.20356  0.00134  1.0000
  C   C520      1.0  0.64729  0.22124  0.00134  1.0000
  C   C521      1.0  0.55474  0.31376  0.00134  1.0000
  C   C522      1.0  0.53708  0.32395  0.00133  1.0000
  C   C523      1.0  0.53712  0.34432  0.00136  1.0000
  C   C524      1.0  0.55481  0.35461  0.00139  1.0000
  C   C525      1.0  0.68850  0.44753  0.00167  1.0000
  C   C526      1.0  0.67833  0.46518  0.00167  1.0000
  C   C527      1.0  0.65797  0.46515  0.00165  1.0000
  C   C528      1.0  0.64768  0.44746  0.00162  1.0000
  H   H169      1.0  0.78102  0.29905  0.00160  1.0000
  O   O81       1.0  0.81593  0.31458  0.00166  1.0000
  O   O82       1.0  0.81596  0.35479  0.00171  1.0000
  H   H170      1.0  0.78107  0.37011  0.00169  1.0000
  H   H171      1.0  0.70325  0.22124  0.00141  1.0000
  O   O83       1.0  0.68772  0.18631  0.00135  1.0000
  O   O84       1.0  0.64751  0.18629  0.00130  1.0000
  H   H172      1.0  0.63220  0.22118  0.00133  1.0000
  H   H173      1.0  0.55467  0.29868  0.00132  1.0000
  O   O85       1.0  0.51980  0.31399  0.00130  1.0000
  O   O86       1.0  0.51989  0.35416  0.00135  1.0000
  H   H174      1.0  0.55480  0.36969  0.00141  1.0000
  H   H175      1.0  0.70357  0.44760  0.00168  1.0000
  O   O87       1.0  0.68828  0.48245  0.00171  1.0000
  O   O88       1.0  0.64813  0.48238  0.00166  1.0000
  H   H176      1.0  0.63259  0.44747  0.00160  1.0000
  Ni  Ni11      1.0  0.66788  0.33439  0.00151  1.0000
  C   C529      1.0  0.68824  0.74532  0.00250  1.0000
  C   C530      1.0  0.67779  0.76306  0.00250  1.0000
  C   C531      1.0  0.65717  0.76308  0.00250  1.0000
  C   C532      1.0  0.64683  0.74537  0.00249  1.0000
  C   C533      1.0  0.65765  0.72813  0.00249  1.0000
  C   C534      1.0  0.67753  0.72810  0.00249  1.0000
  C   C535      1.0  0.68382  0.70873  0.00249  1.0000
  N   N89       1.0  0.66765  0.69655  0.00248  1.0000
  C   C536      1.0  0.65143  0.70877  0.00248  1.0000
  N   N90       1.0  0.63219  0.70313  0.00247  1.0000
  C   C537      1.0  0.62657  0.68392  0.00247  1.0000
  N   N91       1.0  0.63878  0.66770  0.00247  1.0000
  C   C538      1.0  0.62663  0.65154  0.00246  1.0000
  C   C539      1.0  0.60726  0.65784  0.00246  1.0000
  C   C540      1.0  0.60720  0.67770  0.00246  1.0000
  N   N92       1.0  0.66767  0.63880  0.00247  1.0000
  C   C541      1.0  0.65152  0.62666  0.00246  1.0000
  N   N93       1.0  0.63231  0.63233  0.00246  1.0000
  C   C542      1.0  0.65782  0.60728  0.00246  1.0000
  C   C543      1.0  0.67768  0.60724  0.00246  1.0000
  C   C544      1.0  0.68389  0.62659  0.00247  1.0000
  C   C545      1.0  0.58995  0.68851  0.00246  1.0000
  C   C546      1.0  0.57227  0.67820  0.00245  1.0000
  C   C547      1.0  0.57231  0.65761  0.00244  1.0000
  C   C548      1.0  0.59005  0.64715  0.00245  1.0000
  C   C549      1.0  0.68849  0.58999  0.00246  1.0000
  C   C550      1.0  0.67818  0.57228  0.00245  1.0000
  C   C551      1.0  0.65758  0.57234  0.00245  1.0000
  C   C552      1.0  0.64713  0.59008  0.00245  1.0000
  N   N94       1.0  0.69655  0.66767  0.00248  1.0000
  C   C553      1.0  0.70874  0.65145  0.00248  1.0000
  N   N95       1.0  0.70310  0.63222  0.00248  1.0000
  C   C554      1.0  0.72811  0.65766  0.00249  1.0000
  C   C555      1.0  0.72808  0.67753  0.00250  1.0000
  C   C556      1.0  0.70870  0.68384  0.00249  1.0000
  C   C557      1.0  0.74530  0.68823  0.00250  1.0000
  C   C558      1.0  0.76305  0.67778  0.00251  1.0000
  C   C559      1.0  0.76307  0.65717  0.00250  1.0000
  C   C560      1.0  0.74535  0.64684  0.00249  1.0000
  N   N96       1.0  0.70304  0.70307  0.00250  1.0000
  H   H177      1.0  0.70333  0.74509  0.00251  1.0000
  H   H178      1.0  0.63173  0.74518  0.00249  1.0000
  H   H179      1.0  0.59014  0.70360  0.00246  1.0000
  H   H180      1.0  0.59029  0.63207  0.00244  1.0000
  H   H181      1.0  0.70357  0.59016  0.00247  1.0000
  H   H182      1.0  0.63204  0.59033  0.00244  1.0000
  H   H183      1.0  0.74507  0.70333  0.00251  1.0000
  H   H184      1.0  0.74516  0.63174  0.00249  1.0000
  C   C561      1.0  0.78076  0.68784  0.00251  1.0000
  C   C562      1.0  0.79846  0.67753  0.00252  1.0000
  C   C563      1.0  0.79849  0.65714  0.00251  1.0000
  C   C564      1.0  0.78081  0.64697  0.00250  1.0000
  C   C565      1.0  0.68785  0.78079  0.00251  1.0000
  C   C566      1.0  0.67754  0.79850  0.00251  1.0000
  C   C567      1.0  0.65716  0.79852  0.00251  1.0000
  C   C568      1.0  0.64698  0.78085  0.00250  1.0000
  C   C569      1.0  0.55451  0.68840  0.00245  1.0000
  C   C570      1.0  0.53685  0.67823  0.00244  1.0000
  C   C571      1.0  0.53691  0.65786  0.00243  1.0000
  C   C572      1.0  0.55461  0.64756  0.00244  1.0000
  C   C573      1.0  0.68837  0.55453  0.00245  1.0000
  C   C574      1.0  0.67822  0.53688  0.00244  1.0000
  C   C575      1.0  0.65786  0.53693  0.00244  1.0000
  C   C576      1.0  0.64755  0.55463  0.00244  1.0000
  H   H185      1.0  0.78077  0.70293  0.00252  1.0000
  O   O89       1.0  0.81570  0.68737  0.00252  1.0000
  O   O90       1.0  0.81576  0.64716  0.00251  1.0000
  H   H186      1.0  0.78088  0.63186  0.00250  1.0000
  H   H187      1.0  0.70294  0.78081  0.00252  1.0000
  O   O91       1.0  0.68738  0.81574  0.00252  1.0000
  O   O92       1.0  0.64717  0.81580  0.00251  1.0000
  H   H188      1.0  0.63189  0.78092  0.00249  1.0000
  H   H189      1.0  0.55442  0.70348  0.00245  1.0000
  O   O93       1.0  0.51957  0.68820  0.00244  1.0000
  O   O94       1.0  0.51968  0.64804  0.00243  1.0000
  H   H190      1.0  0.55461  0.63248  0.00243  1.0000
  H   H191      1.0  0.70344  0.55445  0.00246  1.0000
  O   O95       1.0  0.68818  0.51960  0.00244  1.0000
  O   O96       1.0  0.64803  0.51971  0.00243  1.0000
  H   H192      1.0  0.63247  0.55463  0.00244  1.0000
  Ni  Ni12      1.0  0.66766  0.66768  0.00248  1.0000
  C   C577      1.0  0.98068  0.33561  0.92368  1.0000
  C   C578      1.0  0.99112  0.33562  0.90595  1.0000
  C   C579      1.0  0.01174  0.33563  0.90595  1.0000
  C   C580      1.0  0.02209  0.33562  0.92366  1.0000
  C   C581      1.0  0.01128  0.33561  0.94090  1.0000
  C   C582      1.0  0.99140  0.33561  0.94090  1.0000
  C   C583      1.0  0.98513  0.33560  0.96027  1.0000
  N   N97       1.0  0.00131  0.33560  0.97246  1.0000
  C   C584      1.0  0.01752  0.33561  0.96026  1.0000
  N   N98       1.0  0.03677  0.33561  0.96592  1.0000
  C   C585      1.0  0.04240  0.33561  0.98514  1.0000
  N   N99       1.0  0.03020  0.33560  0.00134  1.0000
  C   C586      1.0  0.04236  0.33560  0.01752  1.0000
  C   C587      1.0  0.06173  0.33561  0.01123  1.0000
  C   C588      1.0  0.06177  0.33561  0.99137  1.0000
  N   N100      1.0  0.00133  0.33558  0.03022  1.0000
  C   C589      1.0  0.01750  0.33558  0.04237  1.0000
  N   N101      1.0  0.03670  0.33559  0.03672  1.0000
  C   C590      1.0  0.01121  0.33557  0.06175  1.0000
  C   C591      1.0  0.99135  0.33557  0.06177  1.0000
  C   C592      1.0  0.98513  0.33557  0.04241  1.0000
  C   C593      1.0  0.07901  0.33562  0.98058  1.0000
  C   C594      1.0  0.09671  0.33563  0.99089  1.0000
  C   C595      1.0  0.09668  0.33562  0.01149  1.0000
  C   C596      1.0  0.07895  0.33561  0.02193  1.0000
  C   C597      1.0  0.98055  0.33556  0.07902  1.0000
  C   C598      1.0  0.99088  0.33556  0.09673  1.0000
  C   C599      1.0  0.01147  0.33556  0.09669  1.0000
  C   C600      1.0  0.02191  0.33557  0.07896  1.0000
  N   N102      1.0  0.97244  0.33558  0.00133  1.0000
  C   C601      1.0  0.96025  0.33557  0.01753  1.0000
  N   N103      1.0  0.96591  0.33557  0.03677  1.0000
  C   C602      1.0  0.94087  0.33557  0.01131  1.0000
  C   C603      1.0  0.94090  0.33557  0.99143  1.0000
  C   C604      1.0  0.96027  0.33558  0.98514  1.0000
  C   C605      1.0  0.92367  0.33557  0.98072  1.0000
  C   C606      1.0  0.90593  0.33556  0.99116  1.0000
  C   C607      1.0  0.90592  0.33555  0.01177  1.0000
  C   C608      1.0  0.92364  0.33556  0.02211  1.0000
  N   N104      1.0  0.96591  0.33559  0.96591  1.0000
  H   H193      1.0  0.96559  0.33560  0.92389  1.0000
  H   H194      1.0  0.03720  0.33563  0.92387  1.0000
  H   H195      1.0  0.07882  0.33563  0.96548  1.0000
  H   H196      1.0  0.07872  0.33560  0.03702  1.0000
  H   H197      1.0  0.96547  0.33555  0.07883  1.0000
  H   H198      1.0  0.03700  0.33558  0.07872  1.0000
  H   H199      1.0  0.92389  0.33558  0.96563  1.0000
  H   H200      1.0  0.92385  0.33555  0.03721  1.0000
  C   C609      1.0  0.88821  0.33556  0.98108  1.0000
  C   C610      1.0  0.87051  0.33555  0.99138  1.0000
  C   C611      1.0  0.87050  0.33554  0.01176  1.0000
  C   C612      1.0  0.88818  0.33555  0.02195  1.0000
  C   C613      1.0  0.98105  0.33562  0.88820  1.0000
  C   C614      1.0  0.99134  0.33563  0.87051  1.0000
  C   C615      1.0  0.01172  0.33564  0.87050  1.0000
  C   C616      1.0  0.02191  0.33563  0.88819  1.0000
  C   C617      1.0  0.11446  0.33564  0.98071  1.0000
  C   C618      1.0  0.13212  0.33564  0.99090  1.0000
  C   C619      1.0  0.13208  0.33563  0.01127  1.0000
  C   C620      1.0  0.11439  0.33562  0.02156  1.0000
  C   C621      1.0  0.98069  0.33555  0.11448  1.0000
  C   C622      1.0  0.99086  0.33554  0.13213  1.0000
  C   C623      1.0  0.01122  0.33555  0.13210  1.0000
  C   C624      1.0  0.02152  0.33556  0.11441  1.0000
  H   H201      1.0  0.88818  0.33556  0.96599  1.0000
  O   O97       1.0  0.85327  0.33555  0.98152  1.0000
  O   O98       1.0  0.85324  0.33553  0.02173  1.0000
  H   H202      1.0  0.88812  0.33554  0.03706  1.0000
  H   H203      1.0  0.96595  0.33562  0.88818  1.0000
  O   O99       1.0  0.98148  0.33563  0.85325  1.0000
  O   O100      1.0  0.02170  0.33565  0.85323  1.0000
  H   H204      1.0  0.03701  0.33564  0.88813  1.0000
  H   H205      1.0  0.11453  0.33564  0.96563  1.0000
  O   O101      1.0  0.14940  0.33565  0.98094  1.0000
  O   O102      1.0  0.14931  0.33563  0.02111  1.0000
  H   H206      1.0  0.11440  0.33562  0.03664  1.0000
  H   H207      1.0  0.96563  0.33554  0.11454  1.0000
  O   O103      1.0  0.98092  0.33553  0.14940  1.0000
  O   O104      1.0  0.02107  0.33555  0.14933  1.0000
  H   H208      1.0  0.03660  0.33557  0.11442  1.0000
  Ni  Ni13      1.0  0.00132  0.33559  0.00133  1.0000
  C   C625      1.0  0.66672  0.02158  0.07932  1.0000
  C   C626      1.0  0.66671  0.01114  0.09705  1.0000
  C   C627      1.0  0.66670  0.99053  0.09705  1.0000
  C   C628      1.0  0.66671  0.98017  0.07933  1.0000
  C   C629      1.0  0.66671  0.99098  0.06210  1.0000
  C   C630      1.0  0.66672  0.01086  0.06209  1.0000
  C   C631      1.0  0.66673  0.01714  0.04272  1.0000
  N   N105      1.0  0.66673  0.00010  0.03053  1.0000
  C   C632      1.0  0.66672  0.98475  0.04273  1.0000
  N   N106      1.0  0.66671  0.96550  0.03708  1.0000
  C   C633      1.0  0.66672  0.95987  0.01786  1.0000
  N   N107      1.0  0.66673  0.97207  0.00165  1.0000
  C   C634      1.0  0.66673  0.95991  0.98548  1.0000
  C   C635      1.0  0.66672  0.94055  0.99176  1.0000
  C   C636      1.0  0.66671  0.94050  0.01162  1.0000
  N   N108      1.0  0.66675  0.00010  0.97278  1.0000
  C   C637      1.0  0.66675  0.98477  0.96063  1.0000
  N   N109      1.0  0.66674  0.96557  0.96627  1.0000
  C   C638      1.0  0.66675  0.99106  0.94125  1.0000
  C   C639      1.0  0.66676  0.01092  0.94122  1.0000
  C   C640      1.0  0.66676  0.01714  0.96058  1.0000
  C   C641      1.0  0.66671  0.92326  0.02241  1.0000
  C   C642      1.0  0.66670  0.90557  0.01210  1.0000
  C   C643      1.0  0.66671  0.90560  0.99150  1.0000
  C   C644      1.0  0.66672  0.92333  0.98106  1.0000
  C   C645      1.0  0.66677  0.02172  0.92398  1.0000
  C   C646      1.0  0.66677  0.01139  0.90627  1.0000
  C   C647      1.0  0.66677  0.99080  0.90631  1.0000
  C   C648      1.0  0.66676  0.98036  0.92403  1.0000
  N   N110      1.0  0.66675  0.02983  0.00167  1.0000
  C   C649      1.0  0.66676  0.04202  0.98547  1.0000
  N   N111      1.0  0.66676  0.03636  0.96623  1.0000
  C   C650      1.0  0.66676  0.06139  0.99169  1.0000
  C   C651      1.0  0.66675  0.06137  0.01157  1.0000
  C   C652      1.0  0.66675  0.04200  0.01785  1.0000
  C   C653      1.0  0.66676  0.07860  0.02228  1.0000
  C   C654      1.0  0.66677  0.09634  0.01184  1.0000
  C   C655      1.0  0.66677  0.09635  0.99123  1.0000
  C   C656      1.0  0.66677  0.07862  0.98089  1.0000
  N   N112      1.0  0.66674  0.03635  0.03709  1.0000
  H   H209      1.0  0.66672  0.03667  0.07910  1.0000
  H   H210      1.0  0.66670  0.96507  0.07913  1.0000
  H   H211      1.0  0.66670  0.92345  0.03751  1.0000
  H   H212      1.0  0.66672  0.92356  0.96597  1.0000
  H   H213      1.0  0.66677  0.03680  0.92417  1.0000
  H   H214      1.0  0.66675  0.96527  0.92427  1.0000
  H   H215      1.0  0.66675  0.07838  0.03737  1.0000
  H   H216      1.0  0.66677  0.07842  0.96579  1.0000
  C   C657      1.0  0.66677  0.11405  0.02192  1.0000
  C   C658      1.0  0.66678  0.13175  0.01162  1.0000
  C   C659      1.0  0.66678  0.13176  0.99124  1.0000
  C   C660      1.0  0.66678  0.11408  0.98105  1.0000
  C   C661      1.0  0.66671  0.02122  0.11479  1.0000
  C   C662      1.0  0.66670  0.01092  0.13249  1.0000
  C   C663      1.0  0.66669  0.99054  0.13249  1.0000
  C   C664      1.0  0.66669  0.98035  0.11481  1.0000
  C   C665      1.0  0.66669  0.88782  0.02228  1.0000
  C   C666      1.0  0.66669  0.87015  0.01209  1.0000
  C   C667      1.0  0.66670  0.87020  0.99171  1.0000
  C   C668      1.0  0.66671  0.88789  0.98143  1.0000
  C   C669      1.0  0.66678  0.02158  0.88852  1.0000
  C   C670      1.0  0.66678  0.01141  0.87087  1.0000
  C   C671      1.0  0.66678  0.99105  0.87089  1.0000
  C   C672      1.0  0.66677  0.98076  0.88859  1.0000
  H   H217      1.0  0.66676  0.11408  0.03701  1.0000
  O   O105      1.0  0.66678  0.14899  0.02148  1.0000
  O   O106      1.0  0.66679  0.14902  0.98127  1.0000
  H   H218      1.0  0.66679  0.11414  0.96595  1.0000
  H   H219      1.0  0.66671  0.03631  0.11482  1.0000
  O   O107      1.0  0.66670  0.02078  0.14974  1.0000
  O   O108      1.0  0.66668  0.98057  0.14976  1.0000
  H   H220      1.0  0.66669  0.96526  0.11487  1.0000
  H   H221      1.0  0.66669  0.88774  0.03736  1.0000
  O   O109      1.0  0.66668  0.85288  0.02205  1.0000
  O   O110      1.0  0.66670  0.85296  0.98188  1.0000
  H   H222      1.0  0.66671  0.88788  0.96635  1.0000
  H   H223      1.0  0.66679  0.03664  0.88846  1.0000
  O   O111      1.0  0.66679  0.02136  0.85360  1.0000
  O   O112      1.0  0.66678  0.98121  0.85367  1.0000
  H   H224      1.0  0.66676  0.96568  0.88857  1.0000
  Ni  Ni14      1.0  0.66674  0.00010  0.00166  1.0000
  C   C673      1.0  0.02156  0.66668  0.07931  1.0000
  C   C674      1.0  0.01112  0.66667  0.09703  1.0000
  C   C675      1.0  0.99051  0.66666  0.09704  1.0000
  C   C676      1.0  0.98015  0.66667  0.07932  1.0000
  C   C677      1.0  0.99096  0.66668  0.06209  1.0000
  C   C678      1.0  0.01084  0.66668  0.06208  1.0000
  C   C679      1.0  0.01712  0.66669  0.04271  1.0000
  N   N113      1.0  0.00010  0.66669  0.03052  1.0000
  C   C680      1.0  0.98472  0.66668  0.04272  1.0000
  N   N114      1.0  0.96548  0.66668  0.03706  1.0000
  C   C681      1.0  0.95984  0.66668  0.01785  1.0000
  N   N115      1.0  0.97205  0.66669  0.00164  1.0000
  C   C682      1.0  0.95988  0.66669  0.98547  1.0000
  C   C683      1.0  0.94052  0.66668  0.99175  1.0000
  C   C684      1.0  0.94047  0.66668  0.01161  1.0000
  N   N116      1.0  0.00010  0.66671  0.97277  1.0000
  C   C685      1.0  0.98475  0.66671  0.96061  1.0000
  N   N117      1.0  0.96555  0.66670  0.96626  1.0000
  C   C686      1.0  0.99103  0.66672  0.94123  1.0000
  C   C687      1.0  0.01089  0.66672  0.94121  1.0000
  C   C688      1.0  0.01712  0.66672  0.96057  1.0000
  C   C689      1.0  0.92323  0.66667  0.02240  1.0000
  C   C690      1.0  0.90554  0.66667  0.01209  1.0000
  C   C691      1.0  0.90557  0.66667  0.99149  1.0000
  C   C692      1.0  0.92330  0.66668  0.98105  1.0000
  C   C693      1.0  0.02169  0.66673  0.92397  1.0000
  C   C694      1.0  0.01137  0.66673  0.90626  1.0000
  C   C695      1.0  0.99077  0.66673  0.90629  1.0000
  C   C696      1.0  0.98033  0.66672  0.92402  1.0000
  N   N118      1.0  0.02981  0.66671  0.00165  1.0000
  C   C697      1.0  0.04199  0.66672  0.98545  1.0000
  N   N119      1.0  0.03634  0.66672  0.96622  1.0000
  C   C698      1.0  0.06137  0.66672  0.99168  1.0000
  C   C699      1.0  0.06135  0.66672  0.01155  1.0000
  C   C700      1.0  0.04198  0.66671  0.01784  1.0000
  C   C701      1.0  0.07858  0.66672  0.02226  1.0000
  C   C702      1.0  0.09632  0.66673  0.01182  1.0000
  C   C703      1.0  0.09633  0.66673  0.99122  1.0000
  C   C704      1.0  0.07860  0.66673  0.98087  1.0000
  N   N120      1.0  0.03633  0.66670  0.03707  1.0000
  H   H225      1.0  0.03665  0.66669  0.07909  1.0000
  H   H226      1.0  0.96505  0.66666  0.07911  1.0000
  H   H227      1.0  0.92343  0.66666  0.03750  1.0000
  H   H228      1.0  0.92353  0.66669  0.96596  1.0000
  H   H229      1.0  0.03677  0.66674  0.92415  1.0000
  H   H230      1.0  0.96524  0.66671  0.92426  1.0000
  H   H231      1.0  0.07836  0.66671  0.03736  1.0000
  H   H232      1.0  0.07840  0.66674  0.96577  1.0000
  C   C705      1.0  0.11404  0.66673  0.02190  1.0000
  C   C706      1.0  0.13173  0.66674  0.01160  1.0000
  C   C707      1.0  0.13174  0.66674  0.99122  1.0000
  C   C708      1.0  0.11406  0.66674  0.98103  1.0000
  C   C709      1.0  0.02120  0.66667  0.11478  1.0000
  C   C710      1.0  0.01090  0.66666  0.13247  1.0000
  C   C711      1.0  0.99052  0.66665  0.13248  1.0000
  C   C712      1.0  0.98033  0.66666  0.11480  1.0000
  C   C713      1.0  0.88778  0.66666  0.02227  1.0000
  C   C714      1.0  0.87012  0.66665  0.01208  1.0000
  C   C715      1.0  0.87016  0.66666  0.99171  1.0000
  C   C716      1.0  0.88786  0.66667  0.98142  1.0000
  C   C717      1.0  0.02155  0.66674  0.88851  1.0000
  C   C718      1.0  0.01138  0.66675  0.87086  1.0000
  C   C719      1.0  0.99102  0.66674  0.87088  1.0000
  C   C720      1.0  0.98073  0.66673  0.88858  1.0000
  H   H233      1.0  0.11406  0.66672  0.03699  1.0000
  O   O113      1.0  0.14897  0.66674  0.02146  1.0000
  O   O114      1.0  0.14901  0.66675  0.98125  1.0000
  H   H234      1.0  0.11412  0.66675  0.96593  1.0000
  H   H235      1.0  0.03629  0.66667  0.11480  1.0000
  O   O115      1.0  0.02076  0.66666  0.14973  1.0000
  O   O116      1.0  0.98055  0.66664  0.14975  1.0000
  H   H236      1.0  0.96524  0.66665  0.11485  1.0000
  H   H237      1.0  0.88771  0.66665  0.03735  1.0000
  O   O117      1.0  0.85285  0.66665  0.02204  1.0000
  O   O118      1.0  0.85293  0.66666  0.98187  1.0000
  H   H238      1.0  0.88785  0.66667  0.96634  1.0000
  H   H239      1.0  0.03662  0.66675  0.88844  1.0000
  O   O119      1.0  0.02133  0.66676  0.85358  1.0000
  O   O120      1.0  0.98118  0.66674  0.85365  1.0000
  H   H240      1.0  0.96564  0.66673  0.88856  1.0000
  Ni  Ni15      1.0  0.00010  0.66670  0.00165  1.0000
  C   C721      1.0  0.33547  0.92370  0.98070  1.0000
  C   C722      1.0  0.33546  0.90597  0.99114  1.0000
  C   C723      1.0  0.33546  0.90597  0.01176  1.0000
  C   C724      1.0  0.33546  0.92368  0.02211  1.0000
  C   C725      1.0  0.33547  0.94092  0.01130  1.0000
  C   C726      1.0  0.33547  0.94093  0.99142  1.0000
  C   C727      1.0  0.33548  0.96030  0.98515  1.0000
  N   N121      1.0  0.33548  0.97248  0.00133  1.0000
  C   C728      1.0  0.33547  0.96029  0.01754  1.0000
  N   N122      1.0  0.33547  0.96594  0.03679  1.0000
  C   C729      1.0  0.33547  0.98516  0.04242  1.0000
  N   N123      1.0  0.33548  0.00136  0.03022  1.0000
  C   C730      1.0  0.33548  0.01754  0.04238  1.0000
  C   C731      1.0  0.33547  0.01125  0.06175  1.0000
  C   C732      1.0  0.33547  0.99139  0.06179  1.0000
  N   N124      1.0  0.33550  0.03024  0.00136  1.0000
  C   C733      1.0  0.33550  0.04239  0.01752  1.0000
  N   N125      1.0  0.33549  0.03674  0.03672  1.0000
  C   C734      1.0  0.33551  0.06177  0.01124  1.0000
  C   C735      1.0  0.33551  0.06179  0.99138  1.0000
  C   C736      1.0  0.33551  0.04243  0.98515  1.0000
  C   C737      1.0  0.33546  0.98060  0.07903  1.0000
  C   C738      1.0  0.33546  0.99091  0.09673  1.0000
  C   C739      1.0  0.33546  0.01150  0.09670  1.0000
  C   C740      1.0  0.33547  0.02195  0.07897  1.0000
  C   C741      1.0  0.33552  0.07904  0.98058  1.0000
  C   C742      1.0  0.33553  0.09675  0.99091  1.0000
  C   C743      1.0  0.33552  0.09671  0.01150  1.0000
  C   C744      1.0  0.33551  0.07898  0.02194  1.0000
  N   N126      1.0  0.33550  0.00135  0.97246  1.0000
  C   C745      1.0  0.33551  0.01755  0.96028  1.0000
  N   N127      1.0  0.33551  0.03679  0.96594  1.0000
  C   C746      1.0  0.33551  0.01133  0.94090  1.0000
  C   C747      1.0  0.33551  0.99146  0.94092  1.0000
  C   C748      1.0  0.33550  0.98517  0.96029  1.0000
  C   C749      1.0  0.33551  0.98075  0.92369  1.0000
  C   C750      1.0  0.33552  0.99118  0.90595  1.0000
  C   C751      1.0  0.33553  0.01179  0.90595  1.0000
  C   C752      1.0  0.33552  0.02213  0.92367  1.0000
  N   N128      1.0  0.33549  0.96594  0.96594  1.0000
  H   H241      1.0  0.33548  0.92392  0.96561  1.0000
  H   H242      1.0  0.33545  0.92389  0.03721  1.0000
  H   H243      1.0  0.33545  0.96550  0.07884  1.0000
  H   H244      1.0  0.33548  0.03704  0.07874  1.0000
  H   H245      1.0  0.33553  0.07885  0.96550  1.0000
  H   H246      1.0  0.33551  0.07874  0.03703  1.0000
  H   H247      1.0  0.33550  0.96565  0.92391  1.0000
  H   H248      1.0  0.33553  0.03723  0.92388  1.0000
  C   C753      1.0  0.33552  0.98111  0.88823  1.0000
  C   C754      1.0  0.33553  0.99141  0.87054  1.0000
  C   C755      1.0  0.33554  0.01179  0.87053  1.0000
  C   C756      1.0  0.33553  0.02197  0.88821  1.0000
  C   C757      1.0  0.33546  0.88823  0.98106  1.0000
  C   C758      1.0  0.33545  0.87053  0.99136  1.0000
  C   C759      1.0  0.33544  0.87052  0.01174  1.0000
  C   C760      1.0  0.33545  0.88821  0.02193  1.0000
  C   C761      1.0  0.33545  0.98073  0.11448  1.0000
  C   C762      1.0  0.33545  0.99091  0.13214  1.0000
  C   C763      1.0  0.33545  0.01129  0.13210  1.0000
  C   C764      1.0  0.33546  0.02157  0.11441  1.0000
  C   C765      1.0  0.33554  0.11450  0.98073  1.0000
  C   C766      1.0  0.33554  0.13215  0.99090  1.0000
  C   C767      1.0  0.33553  0.13212  0.01125  1.0000
  C   C768      1.0  0.33552  0.11442  0.02155  1.0000
  H   H249      1.0  0.33552  0.96602  0.88821  1.0000
  O   O121      1.0  0.33553  0.98155  0.85330  1.0000
  O   O122      1.0  0.33555  0.02176  0.85327  1.0000
  H   H250      1.0  0.33554  0.03708  0.88815  1.0000
  H   H251      1.0  0.33547  0.88820  0.96597  1.0000
  O   O123      1.0  0.33545  0.85328  0.98150  1.0000
  O   O124      1.0  0.33544  0.85326  0.02171  1.0000
  H   H252      1.0  0.33544  0.88815  0.03702  1.0000
  H   H253      1.0  0.33544  0.96565  0.11455  1.0000
  O   O125      1.0  0.33544  0.98095  0.14941  1.0000
  O   O126      1.0  0.33545  0.02112  0.14933  1.0000
  H   H254      1.0  0.33547  0.03665  0.11442  1.0000
  H   H255      1.0  0.33554  0.11456  0.96566  1.0000
  O   O127      1.0  0.33555  0.14942  0.98095  1.0000
  O   O128      1.0  0.33553  0.14935  0.02110  1.0000
  H   H256      1.0  0.33552  0.11444  0.03663  1.0000
  Ni  Ni16      1.0  0.33549  0.00136  0.00134  1.0000
  C   C769      1.0  0.02156  0.92333  0.33593  1.0000
  C   C770      1.0  0.01112  0.90561  0.33594  1.0000
  C   C771      1.0  0.99050  0.90560  0.33595  1.0000
  C   C772      1.0  0.98015  0.92332  0.33595  1.0000
  C   C773      1.0  0.99095  0.94055  0.33594  1.0000
  C   C774      1.0  0.01083  0.94056  0.33593  1.0000
  C   C775      1.0  0.01711  0.95993  0.33592  1.0000
  N   N129      1.0  0.00010  0.97212  0.33592  1.0000
  C   C776      1.0  0.98472  0.95992  0.33593  1.0000
  N   N130      1.0  0.96547  0.96557  0.33594  1.0000
  C   C777      1.0  0.95983  0.98479  0.33593  1.0000
  N   N131      1.0  0.97204  0.00010  0.33592  1.0000
  C   C778      1.0  0.95987  0.01717  0.33592  1.0000
  C   C779      1.0  0.94051  0.01088  0.33593  1.0000
  C   C780      1.0  0.94046  0.99103  0.33594  1.0000
  N   N132      1.0  0.00010  0.02987  0.33590  1.0000
  C   C781      1.0  0.98474  0.04202  0.33590  1.0000
  N   N133      1.0  0.96553  0.03638  0.33591  1.0000
  C   C782      1.0  0.99102  0.06140  0.33590  1.0000
  C   C783      1.0  0.01088  0.06143  0.33589  1.0000
  C   C784      1.0  0.01711  0.04207  0.33589  1.0000
  C   C785      1.0  0.92322  0.98023  0.33595  1.0000
  C   C786      1.0  0.90553  0.99055  0.33595  1.0000
  C   C787      1.0  0.90556  0.01114  0.33594  1.0000
  C   C788      1.0  0.92328  0.02158  0.33593  1.0000
  C   C789      1.0  0.02168  0.07867  0.33588  1.0000
  C   C790      1.0  0.01135  0.09638  0.33588  1.0000
  C   C791      1.0  0.99076  0.09634  0.33588  1.0000
  C   C792      1.0  0.98032  0.07861  0.33589  1.0000
  N   N134      1.0  0.02980  0.00010  0.33590  1.0000
  C   C793      1.0  0.04198  0.01719  0.33589  1.0000
  N   N135      1.0  0.03632  0.03642  0.33589  1.0000
  C   C794      1.0  0.06136  0.01096  0.33589  1.0000
  C   C795      1.0  0.06134  0.99109  0.33590  1.0000
  C   C796      1.0  0.04197  0.98480  0.33590  1.0000
  C   C797      1.0  0.07857  0.98038  0.33589  1.0000
  C   C798      1.0  0.09631  0.99082  0.33588  1.0000
  C   C799      1.0  0.09632  0.01143  0.33588  1.0000
  C   C800      1.0  0.07859  0.02177  0.33588  1.0000
  N   N136      1.0  0.03632  0.96557  0.33591  1.0000
  H   H257      1.0  0.03665  0.92355  0.33593  1.0000
  H   H258      1.0  0.96504  0.92352  0.33595  1.0000
  H   H259      1.0  0.92342  0.96514  0.33595  1.0000
  H   H260      1.0  0.92352  0.03667  0.33593  1.0000
  H   H261      1.0  0.03676  0.07848  0.33588  1.0000
  H   H262      1.0  0.96523  0.07837  0.33590  1.0000
  H   H263      1.0  0.07835  0.96528  0.33590  1.0000
  H   H264      1.0  0.07838  0.03687  0.33588  1.0000
  C   C801      1.0  0.11403  0.98074  0.33588  1.0000
  C   C802      1.0  0.13172  0.99104  0.33587  1.0000
  C   C803      1.0  0.13173  0.01142  0.33587  1.0000
  C   C804      1.0  0.11405  0.02161  0.33587  1.0000
  C   C805      1.0  0.02119  0.88786  0.33594  1.0000
  C   C806      1.0  0.01090  0.87017  0.33595  1.0000
  C   C807      1.0  0.99052  0.87016  0.33596  1.0000
  C   C808      1.0  0.98033  0.88784  0.33596  1.0000
  C   C809      1.0  0.88778  0.98036  0.33596  1.0000
  C   C810      1.0  0.87011  0.99055  0.33596  1.0000
  C   C811      1.0  0.87015  0.01092  0.33595  1.0000
  C   C812      1.0  0.88785  0.02121  0.33594  1.0000
  C   C813      1.0  0.02153  0.11413  0.33587  1.0000
  C   C814      1.0  0.01136  0.13178  0.33587  1.0000
  C   C815      1.0  0.99100  0.13175  0.33587  1.0000
  C   C816      1.0  0.98071  0.11406  0.33588  1.0000
  H   H265      1.0  0.11405  0.96565  0.33589  1.0000
  O   O129      1.0  0.14897  0.98118  0.33587  1.0000
  O   O130      1.0  0.14900  0.02139  0.33586  1.0000
  H   H266      1.0  0.11411  0.03672  0.33586  1.0000
  H   H267      1.0  0.03629  0.88784  0.33594  1.0000
  O   O131      1.0  0.02076  0.85291  0.33595  1.0000
  O   O132      1.0  0.98055  0.85289  0.33597  1.0000
  H   H268      1.0  0.96523  0.88778  0.33596  1.0000
  H   H269      1.0  0.88771  0.96528  0.33596  1.0000
  O   O133      1.0  0.85284  0.98059  0.33597  1.0000
  O   O134      1.0  0.85292  0.02076  0.33595  1.0000
  H   H270      1.0  0.88783  0.03629  0.33594  1.0000
  H   H271      1.0  0.03660  0.11420  0.33586  1.0000
  O   O135      1.0  0.02131  0.14905  0.33586  1.0000
  O   O136      1.0  0.98116  0.14898  0.33587  1.0000
  H   H272      1.0  0.96563  0.11408  0.33589  1.0000
  Ni  Ni17      1.0  0.00010  0.00010  0.33591  1.0000
  C   C817      1.0  0.02192  0.92370  0.66711  1.0000
  C   C818      1.0  0.01148  0.90597  0.66711  1.0000
  C   C819      1.0  0.99086  0.90597  0.66712  1.0000
  C   C820      1.0  0.98050  0.92368  0.66712  1.0000
  C   C821      1.0  0.99131  0.94092  0.66711  1.0000
  C   C822      1.0  0.01119  0.94093  0.66710  1.0000
  C   C823      1.0  0.01747  0.96029  0.66709  1.0000
  N   N137      1.0  0.00128  0.97248  0.66710  1.0000
  C   C824      1.0  0.98508  0.96028  0.66710  1.0000
  N   N138      1.0  0.96583  0.96594  0.66711  1.0000
  C   C825      1.0  0.96019  0.98515  0.66710  1.0000
  N   N139      1.0  0.97239  0.00136  0.66710  1.0000
  C   C826      1.0  0.96023  0.01753  0.66709  1.0000
  C   C827      1.0  0.94087  0.01125  0.66710  1.0000
  C   C828      1.0  0.94082  0.99139  0.66711  1.0000
  N   N140      1.0  0.00126  0.03023  0.66708  1.0000
  C   C829      1.0  0.98509  0.04239  0.66708  1.0000
  N   N141      1.0  0.96589  0.03674  0.66709  1.0000
  C   C830      1.0  0.99138  0.06177  0.66707  1.0000
  C   C831      1.0  0.01124  0.06179  0.66706  1.0000
  C   C832      1.0  0.01746  0.04243  0.66707  1.0000
  C   C833      1.0  0.92358  0.98059  0.66712  1.0000
  C   C834      1.0  0.90589  0.99091  0.66712  1.0000
  C   C835      1.0  0.90592  0.01150  0.66711  1.0000
  C   C836      1.0  0.92364  0.02195  0.66710  1.0000
  C   C837      1.0  0.02204  0.07903  0.66705  1.0000
  C   C838      1.0  0.01171  0.09674  0.66705  1.0000
  C   C839      1.0  0.99111  0.09670  0.66706  1.0000
  C   C840      1.0  0.98067  0.07898  0.66707  1.0000
  N   N142      1.0  0.03016  0.00135  0.66708  1.0000
  C   C841      1.0  0.04234  0.01755  0.66707  1.0000
  N   N143      1.0  0.03668  0.03679  0.66706  1.0000
  C   C842      1.0  0.06172  0.01133  0.66706  1.0000
  C   C843      1.0  0.06170  0.99145  0.66707  1.0000
  C   C844      1.0  0.04233  0.98517  0.66708  1.0000
  C   C845      1.0  0.07893  0.98074  0.66707  1.0000
  C   C846      1.0  0.09667  0.99118  0.66706  1.0000
  C   C847      1.0  0.09667  0.01179  0.66705  1.0000
  C   C848      1.0  0.07895  0.02213  0.66705  1.0000
  N   N144      1.0  0.03668  0.96593  0.66709  1.0000
  H   H273      1.0  0.03701  0.92392  0.66710  1.0000
  H   H274      1.0  0.96540  0.92389  0.66712  1.0000
  H   H275      1.0  0.92378  0.96550  0.66712  1.0000
  H   H276      1.0  0.92387  0.03703  0.66710  1.0000
  H   H277      1.0  0.03712  0.07885  0.66705  1.0000
  H   H278      1.0  0.96559  0.07874  0.66707  1.0000
  H   H279      1.0  0.07871  0.96565  0.66707  1.0000
  H   H280      1.0  0.07874  0.03723  0.66705  1.0000
  C   C849      1.0  0.11439  0.98110  0.66706  1.0000
  C   C850      1.0  0.13208  0.99140  0.66705  1.0000
  C   C851      1.0  0.13209  0.01179  0.66704  1.0000
  C   C852      1.0  0.11441  0.02197  0.66704  1.0000
  C   C853      1.0  0.02155  0.88823  0.66712  1.0000
  C   C854      1.0  0.01126  0.87053  0.66713  1.0000
  C   C855      1.0  0.99088  0.87052  0.66713  1.0000
  C   C856      1.0  0.98069  0.88821  0.66713  1.0000
  C   C857      1.0  0.88813  0.98073  0.66713  1.0000
  C   C858      1.0  0.87047  0.99091  0.66713  1.0000
  C   C859      1.0  0.87051  0.01129  0.66712  1.0000
  C   C860      1.0  0.88821  0.02157  0.66712  1.0000
  C   C861      1.0  0.02189  0.11449  0.66704  1.0000
  C   C862      1.0  0.01172  0.13214  0.66704  1.0000
  C   C863      1.0  0.99136  0.13212  0.66705  1.0000
  C   C864      1.0  0.98107  0.11442  0.66705  1.0000
  H   H281      1.0  0.11441  0.96601  0.66706  1.0000
  O   O137      1.0  0.14932  0.98155  0.66705  1.0000
  O   O138      1.0  0.14935  0.02175  0.66703  1.0000
  H   H282      1.0  0.11447  0.03708  0.66704  1.0000
  H   H283      1.0  0.03665  0.88820  0.66711  1.0000
  O   O139      1.0  0.02112  0.85328  0.66713  1.0000
  O   O140      1.0  0.98091  0.85325  0.66714  1.0000
  H   H284      1.0  0.96559  0.88815  0.66714  1.0000
  H   H285      1.0  0.88806  0.96565  0.66713  1.0000
  O   O141      1.0  0.85320  0.98095  0.66714  1.0000
  O   O142      1.0  0.85328  0.02112  0.66713  1.0000
  H   H286      1.0  0.88819  0.03665  0.66711  1.0000
  H   H287      1.0  0.03696  0.11456  0.66704  1.0000
  O   O143      1.0  0.02167  0.14942  0.66703  1.0000
  O   O144      1.0  0.98152  0.14934  0.66704  1.0000
  H   H288      1.0  0.96599  0.11444  0.66706  1.0000
  Ni  Ni18      1.0  0.00127  0.00135  0.66709  1.0000
  Cu  Cu1       1.0  0.00010  0.50103  0.33446  1.0000
  Cu  Cu2       1.0  0.50100  0.00010  0.33449  1.0000
  Cu  Cu3       1.0  0.00171  0.50125  0.66852  1.0000
  Cu  Cu4       1.0  0.50122  0.00177  0.66852  1.0000
  Cu  Cu5       1.0  0.33407  0.00177  0.50140  1.0000
  Cu  Cu6       1.0  0.00169  0.33414  0.50138  1.0000
  Cu  Cu7       1.0  0.66815  0.00010  0.50161  1.0000
  Cu  Cu8       1.0  0.00010  0.66815  0.50160  1.0000
  Cu  Cu9       1.0  0.50123  0.33413  0.00010  1.0000
  Cu  Cu10      1.0  0.50101  0.66816  0.00204  1.0000
  Cu  Cu11      1.0  0.33409  0.50126  0.00010  1.0000
  Cu  Cu12      1.0  0.66816  0.50104  0.00206  1.0000
  Zn  Zn1       1.0  0.00010  0.33511  0.16802  1.0000
  Zn  Zn2       1.0  0.66698  0.00010  0.16832  1.0000
  Zn  Zn3       1.0  0.00010  0.66696  0.16831  1.0000
  Zn  Zn4       1.0  0.33503  0.00101  0.16802  1.0000
  Zn  Zn5       1.0  0.00129  0.66717  0.83496  1.0000
  Zn  Zn6       1.0  0.33524  0.00195  0.83471  1.0000
  Zn  Zn7       1.0  0.00188  0.33533  0.83467  1.0000
  Zn  Zn8       1.0  0.66720  0.00132  0.83499  1.0000
  Zn  Zn9       1.0  0.16763  0.00133  0.33545  1.0000
  Zn  Zn10      1.0  0.00126  0.16767  0.33543  1.0000
  Zn  Zn11      1.0  0.83430  0.00010  0.33567  1.0000
  Zn  Zn12      1.0  0.00010  0.83433  0.33565  1.0000
  Zn  Zn13      1.0  0.16792  0.00195  0.66733  1.0000
  Zn  Zn14      1.0  0.00188  0.16796  0.66734  1.0000
  Zn  Zn15      1.0  0.83459  0.00101  0.66755  1.0000
  Zn  Zn16      1.0  0.00010  0.83462  0.66756  1.0000
  Zn  Zn17      1.0  0.33525  0.16796  0.00010  1.0000
  Zn  Zn18      1.0  0.33503  0.83463  0.00163  1.0000
  Zn  Zn19      1.0  0.16793  0.33534  0.00010  1.0000
  Zn  Zn20      1.0  0.66720  0.16766  0.00135  1.0000
  Zn  Zn21      1.0  0.83431  0.66696  0.00223  1.0000
  Zn  Zn22      1.0  0.66698  0.83434  0.00224  1.0000
  Zn  Zn23      1.0  0.16764  0.66717  0.00132  1.0000
  Zn  Zn24      1.0  0.83460  0.33511  0.00166  1.0000
