data_image0
_chemical_formula_structural       C7NCNCNC3NCNC11NCNC7NH8C16HO2H2O2H2O2H2O2HNiC7NCNCNC3NCNC11NCNC7NH8C16HO2H2O2H2O2H2O2HNiC7NCNCNC3NCNC11NCNC7NH8C16HO2H2O2H2O2H2O2HNiC7NCNCNC3NCNC11NCNC7NH8C16HO2H2O2H2O2H2O2HNiC7NCNCNC3NCNC11NCNC7NH8C16HO2H2O2H2O2H2O2HNiC7NCNCNC3NCNC11NCNC7NH8C16HO2H2O2H2O2H2O2HNiC7NCNCNC3NCNC11NCNC7NH8C16HO2H2O2H2O2H2O2HNiC7NCNCNC3NCNC11NCNC7NH8C16HO2H2O2H2O2H2O2HNiC7NCNCNC3NCNC11NCNC7NH8C16HO2H2O2H2O2H2O2HNiC7NCNCNC3NCNC11NCNC7NH8C16HO2H2O2H2O2H2O2HNiC7NCNCNC3NCNC11NCNC7NH8C16HO2H2O2H2O2H2O2HNiC7NCNCNC3NCNC11NCNC7NH8C16HO2H2O2H2O2H2O2HNiCu4Zn8Cu12
_chemical_formula_sum              "C576 N96 H192 O96 Ni12 Cu16 Zn8"
_cell_length_a       100.287
_cell_length_b       100.295
_cell_length_c       25.0723
_cell_angle_alpha    90.2627
_cell_angle_beta     90.2624
_cell_angle_gamma    90.0005

_space_group_name_H-M_alt    "P 1"
_space_group_IT_number       1

loop_
  _space_group_symop_operation_xyz
  'x, y, z'

loop_
  _atom_site_type_symbol
  _atom_site_label
  _atom_site_symmetry_multiplicity
  _atom_site_fract_x
  _atom_site_fract_y
  _atom_site_fract_z
  _atom_site_occupancy
  C   C1        1.0  0.35955  0.43321  0.00142  1.0000
  C   C2        1.0  0.36739  0.44651  0.00144  1.0000
  C   C3        1.0  0.38285  0.44652  0.00146  1.0000
  C   C4        1.0  0.39061  0.43324  0.00145  1.0000
  C   C5        1.0  0.38250  0.42031  0.00143  1.0000
  C   C6        1.0  0.36759  0.42030  0.00142  1.0000
  C   C7        1.0  0.36288  0.40577  0.00140  1.0000
  N   N1        1.0  0.37501  0.39663  0.00140  1.0000
  C   C8        1.0  0.38717  0.40578  0.00142  1.0000
  N   N2        1.0  0.40160  0.40155  0.00143  1.0000
  C   C9        1.0  0.40583  0.38714  0.00142  1.0000
  N   N3        1.0  0.39667  0.37498  0.00140  1.0000
  C   C10       1.0  0.40578  0.36286  0.00140  1.0000
  C   C11       1.0  0.42031  0.36758  0.00142  1.0000
  C   C12       1.0  0.42035  0.38247  0.00143  1.0000
  N   N4        1.0  0.37501  0.35332  0.00136  1.0000
  C   C13       1.0  0.38713  0.34421  0.00137  1.0000
  N   N5        1.0  0.40153  0.34845  0.00138  1.0000
  C   C14       1.0  0.38241  0.32967  0.00135  1.0000
  C   C15       1.0  0.36752  0.32965  0.00134  1.0000
  C   C16       1.0  0.36285  0.34417  0.00135  1.0000
  C   C17       1.0  0.43328  0.39057  0.00145  1.0000
  C   C18       1.0  0.44655  0.38284  0.00146  1.0000
  C   C19       1.0  0.44652  0.36740  0.00144  1.0000
  C   C20       1.0  0.43323  0.35956  0.00142  1.0000
  C   C21       1.0  0.35941  0.31671  0.00132  1.0000
  C   C22       1.0  0.36715  0.30344  0.00131  1.0000
  C   C23       1.0  0.38260  0.30347  0.00133  1.0000
  C   C24       1.0  0.39043  0.31677  0.00135  1.0000
  N   N6        1.0  0.35335  0.37498  0.00136  1.0000
  C   C25       1.0  0.34420  0.36282  0.00134  1.0000
  N   N7        1.0  0.34844  0.34839  0.00134  1.0000
  C   C26       1.0  0.32967  0.36748  0.00134  1.0000
  C   C27       1.0  0.32970  0.38239  0.00135  1.0000
  C   C28       1.0  0.34422  0.38711  0.00137  1.0000
  C   C29       1.0  0.31678  0.39041  0.00134  1.0000
  C   C30       1.0  0.30347  0.38258  0.00133  1.0000
  C   C31       1.0  0.30346  0.36712  0.00131  1.0000
  C   C32       1.0  0.31675  0.35937  0.00132  1.0000
  N   N8        1.0  0.34847  0.40153  0.00138  1.0000
  H   H1        1.0  0.34824  0.43304  0.00141  1.0000
  H   H2        1.0  0.40194  0.43309  0.00146  1.0000
  H   H3        1.0  0.43314  0.40189  0.00146  1.0000
  H   H4        1.0  0.43305  0.34824  0.00141  1.0000
  H   H5        1.0  0.34810  0.31685  0.00131  1.0000
  H   H6        1.0  0.40175  0.31695  0.00136  1.0000
  H   H7        1.0  0.31695  0.40173  0.00136  1.0000
  H   H8        1.0  0.31690  0.34805  0.00131  1.0000
  C   C33       1.0  0.29018  0.39013  0.00132  1.0000
  C   C34       1.0  0.27691  0.38240  0.00130  1.0000
  C   C35       1.0  0.27689  0.36712  0.00129  1.0000
  C   C36       1.0  0.29015  0.35948  0.00129  1.0000
  C   C37       1.0  0.35984  0.45982  0.00145  1.0000
  C   C38       1.0  0.36756  0.47309  0.00147  1.0000
  C   C39       1.0  0.38285  0.47310  0.00148  1.0000
  C   C40       1.0  0.39049  0.45984  0.00148  1.0000
  C   C41       1.0  0.45987  0.39048  0.00148  1.0000
  C   C42       1.0  0.47311  0.38285  0.00148  1.0000
  C   C43       1.0  0.47308  0.36757  0.00147  1.0000
  C   C44       1.0  0.45980  0.35985  0.00145  1.0000
  C   C45       1.0  0.35951  0.29012  0.00129  1.0000
  C   C46       1.0  0.36713  0.27689  0.00129  1.0000
  C   C47       1.0  0.38240  0.27691  0.00130  1.0000
  C   C48       1.0  0.39012  0.29019  0.00132  1.0000
  H   H9        1.0  0.29017  0.40145  0.00133  1.0000
  O   O1        1.0  0.26398  0.38979  0.00130  1.0000
  O   O2        1.0  0.26394  0.35964  0.00127  1.0000
  H   H10       1.0  0.29010  0.34815  0.00128  1.0000
  H   H11       1.0  0.34852  0.45983  0.00144  1.0000
  O   O3        1.0  0.36018  0.48603  0.00147  1.0000
  O   O4        1.0  0.39034  0.48606  0.00150  1.0000
  H   H12       1.0  0.40181  0.45989  0.00149  1.0000
  H   H13       1.0  0.45993  0.40179  0.00149  1.0000
  O   O5        1.0  0.48607  0.39032  0.00150  1.0000
  O   O6        1.0  0.48600  0.36020  0.00147  1.0000
  H   H14       1.0  0.45981  0.34854  0.00144  1.0000
  H   H15       1.0  0.34821  0.29007  0.00128  1.0000
  O   O7        1.0  0.35966  0.26393  0.00127  1.0000
  O   O8        1.0  0.38978  0.26400  0.00130  1.0000
  H   H16       1.0  0.40144  0.29018  0.00133  1.0000
  Ni  Ni1       1.0  0.37501  0.37498  0.00138  1.0000
  C   C49       1.0  0.64045  0.43321  0.00212  1.0000
  C   C50       1.0  0.63261  0.44651  0.00212  1.0000
  C   C51       1.0  0.61715  0.44652  0.00211  1.0000
  C   C52       1.0  0.60939  0.43324  0.00209  1.0000
  C   C53       1.0  0.61750  0.42031  0.00208  1.0000
  C   C54       1.0  0.63241  0.42030  0.00210  1.0000
  C   C55       1.0  0.63712  0.40577  0.00209  1.0000
  N   N9        1.0  0.62499  0.39663  0.00207  1.0000
  C   C56       1.0  0.61283  0.40578  0.00207  1.0000
  N   N10       1.0  0.59839  0.40155  0.00205  1.0000
  C   C57       1.0  0.59417  0.38714  0.00203  1.0000
  N   N11       1.0  0.60333  0.37498  0.00203  1.0000
  C   C58       1.0  0.59421  0.36286  0.00201  1.0000
  C   C59       1.0  0.57969  0.36758  0.00200  1.0000
  C   C60       1.0  0.57965  0.38247  0.00201  1.0000
  N   N12       1.0  0.62499  0.35332  0.00203  1.0000
  C   C61       1.0  0.61287  0.34421  0.00201  1.0000
  N   N13       1.0  0.59847  0.34845  0.00200  1.0000
  C   C62       1.0  0.61759  0.32967  0.00200  1.0000
  C   C63       1.0  0.63248  0.32965  0.00202  1.0000
  C   C64       1.0  0.63715  0.34417  0.00204  1.0000
  C   C65       1.0  0.56671  0.39057  0.00200  1.0000
  C   C66       1.0  0.55345  0.38284  0.00198  1.0000
  C   C67       1.0  0.55348  0.36739  0.00197  1.0000
  C   C68       1.0  0.56677  0.35956  0.00198  1.0000
  C   C69       1.0  0.64059  0.31671  0.00201  1.0000
  C   C70       1.0  0.63285  0.30344  0.00199  1.0000
  C   C71       1.0  0.61740  0.30347  0.00198  1.0000
  C   C72       1.0  0.60957  0.31677  0.00198  1.0000
  N   N14       1.0  0.64665  0.37498  0.00207  1.0000
  C   C73       1.0  0.65579  0.36282  0.00207  1.0000
  N   N15       1.0  0.65156  0.34840  0.00205  1.0000
  C   C74       1.0  0.67033  0.36748  0.00209  1.0000
  C   C75       1.0  0.67030  0.38239  0.00210  1.0000
  C   C76       1.0  0.65578  0.38711  0.00209  1.0000
  C   C77       1.0  0.68322  0.39041  0.00213  1.0000
  C   C78       1.0  0.69653  0.38258  0.00213  1.0000
  C   C79       1.0  0.69654  0.36713  0.00212  1.0000
  C   C80       1.0  0.68325  0.35937  0.00210  1.0000
  N   N16       1.0  0.65153  0.40153  0.00210  1.0000
  H   H17       1.0  0.65176  0.43304  0.00213  1.0000
  H   H18       1.0  0.59806  0.43309  0.00208  1.0000
  H   H19       1.0  0.56686  0.40189  0.00202  1.0000
  H   H20       1.0  0.56695  0.34824  0.00197  1.0000
  H   H21       1.0  0.65190  0.31685  0.00203  1.0000
  H   H22       1.0  0.59825  0.31695  0.00197  1.0000
  H   H23       1.0  0.68305  0.40174  0.00214  1.0000
  H   H24       1.0  0.68310  0.34805  0.00209  1.0000
  C   C81       1.0  0.70982  0.39013  0.00215  1.0000
  C   C82       1.0  0.72309  0.38240  0.00216  1.0000
  C   C83       1.0  0.72310  0.36712  0.00215  1.0000
  C   C84       1.0  0.70985  0.35948  0.00213  1.0000
  C   C85       1.0  0.64016  0.45982  0.00214  1.0000
  C   C86       1.0  0.63244  0.47309  0.00215  1.0000
  C   C87       1.0  0.61715  0.47310  0.00213  1.0000
  C   C88       1.0  0.60951  0.45984  0.00211  1.0000
  C   C89       1.0  0.54013  0.39048  0.00198  1.0000
  C   C90       1.0  0.52688  0.38285  0.00196  1.0000
  C   C91       1.0  0.52692  0.36756  0.00194  1.0000
  C   C92       1.0  0.54020  0.35985  0.00195  1.0000
  C   C93       1.0  0.64049  0.29012  0.00199  1.0000
  C   C94       1.0  0.63287  0.27689  0.00197  1.0000
  C   C95       1.0  0.61760  0.27691  0.00196  1.0000
  C   C96       1.0  0.60987  0.29019  0.00196  1.0000
  H   H25       1.0  0.70983  0.40145  0.00216  1.0000
  O   O9        1.0  0.73602  0.38979  0.00218  1.0000
  O   O10       1.0  0.73606  0.35964  0.00215  1.0000
  H   H26       1.0  0.70990  0.34815  0.00211  1.0000
  H   H27       1.0  0.65148  0.45983  0.00215  1.0000
  O   O11       1.0  0.63982  0.48603  0.00217  1.0000
  O   O12       1.0  0.60966  0.48606  0.00214  1.0000
  H   H28       1.0  0.59819  0.45989  0.00210  1.0000
  H   H29       1.0  0.54007  0.40179  0.00199  1.0000
  O   O13       1.0  0.51393  0.39032  0.00195  1.0000
  O   O14       1.0  0.51400  0.36020  0.00192  1.0000
  H   H30       1.0  0.54019  0.34854  0.00194  1.0000
  H   H31       1.0  0.65179  0.29007  0.00200  1.0000
  O   O15       1.0  0.64033  0.26393  0.00197  1.0000
  O   O16       1.0  0.61022  0.26400  0.00194  1.0000
  H   H32       1.0  0.59856  0.29018  0.00195  1.0000
  Ni  Ni2       1.0  0.62499  0.37498  0.00205  1.0000
  C   C97       1.0  0.64045  0.56679  0.00266  1.0000
  C   C98       1.0  0.63261  0.55349  0.00264  1.0000
  C   C99       1.0  0.61715  0.55348  0.00263  1.0000
  C   C100      1.0  0.60939  0.56676  0.00263  1.0000
  C   C101      1.0  0.61750  0.57969  0.00265  1.0000
  C   C102      1.0  0.63241  0.57970  0.00266  1.0000
  C   C103      1.0  0.63712  0.59423  0.00268  1.0000
  N   N17       1.0  0.62499  0.60337  0.00268  1.0000
  C   C104      1.0  0.61283  0.59421  0.00266  1.0000
  N   N18       1.0  0.59839  0.59845  0.00265  1.0000
  C   C105      1.0  0.59417  0.61286  0.00266  1.0000
  N   N19       1.0  0.60333  0.62502  0.00268  1.0000
  C   C106      1.0  0.59421  0.63714  0.00268  1.0000
  C   C107      1.0  0.57969  0.63242  0.00266  1.0000
  C   C108      1.0  0.57965  0.61753  0.00265  1.0000
  N   N20       1.0  0.62499  0.64668  0.00272  1.0000
  C   C109      1.0  0.61287  0.65579  0.00272  1.0000
  N   N21       1.0  0.59847  0.65155  0.00270  1.0000
  C   C110      1.0  0.61759  0.67033  0.00273  1.0000
  C   C111      1.0  0.63248  0.67035  0.00275  1.0000
  C   C112      1.0  0.63715  0.65583  0.00274  1.0000
  C   C113      1.0  0.56672  0.60943  0.00263  1.0000
  C   C114      1.0  0.55345  0.61716  0.00262  1.0000
  C   C115      1.0  0.55348  0.63260  0.00264  1.0000
  C   C116      1.0  0.56677  0.64044  0.00266  1.0000
  C   C117      1.0  0.64059  0.68329  0.00277  1.0000
  C   C118      1.0  0.63285  0.69656  0.00277  1.0000
  C   C119      1.0  0.61740  0.69653  0.00276  1.0000
  C   C120      1.0  0.60957  0.68323  0.00274  1.0000
  N   N22       1.0  0.64665  0.62502  0.00272  1.0000
  C   C121      1.0  0.65579  0.63718  0.00274  1.0000
  N   N23       1.0  0.65156  0.65160  0.00275  1.0000
  C   C122      1.0  0.67033  0.63252  0.00275  1.0000
  C   C123      1.0  0.67030  0.61761  0.00274  1.0000
  C   C124      1.0  0.65578  0.61289  0.00272  1.0000
  C   C125      1.0  0.68322  0.60959  0.00274  1.0000
  C   C126      1.0  0.69653  0.61742  0.00276  1.0000
  C   C127      1.0  0.69654  0.63287  0.00277  1.0000
  C   C128      1.0  0.68325  0.64063  0.00277  1.0000
  N   N24       1.0  0.65153  0.59847  0.00270  1.0000
  H   H33       1.0  0.65176  0.56696  0.00267  1.0000
  H   H34       1.0  0.59806  0.56691  0.00262  1.0000
  H   H35       1.0  0.56686  0.59811  0.00262  1.0000
  H   H36       1.0  0.56695  0.65176  0.00267  1.0000
  H   H37       1.0  0.65190  0.68315  0.00278  1.0000
  H   H38       1.0  0.59825  0.68305  0.00273  1.0000
  H   H39       1.0  0.68305  0.59826  0.00273  1.0000
  H   H40       1.0  0.68310  0.65195  0.00278  1.0000
  C   C129      1.0  0.70982  0.60987  0.00277  1.0000
  C   C130      1.0  0.72309  0.61760  0.00279  1.0000
  C   C131      1.0  0.72311  0.63288  0.00280  1.0000
  C   C132      1.0  0.70985  0.64052  0.00279  1.0000
  C   C133      1.0  0.64016  0.54018  0.00264  1.0000
  C   C134      1.0  0.63244  0.52691  0.00262  1.0000
  C   C135      1.0  0.61715  0.52690  0.00260  1.0000
  C   C136      1.0  0.60951  0.54016  0.00261  1.0000
  C   C137      1.0  0.54013  0.60952  0.00260  1.0000
  C   C138      1.0  0.52688  0.61715  0.00260  1.0000
  C   C139      1.0  0.52692  0.63243  0.00261  1.0000
  C   C140      1.0  0.54020  0.64015  0.00263  1.0000
  C   C141      1.0  0.64049  0.70988  0.00279  1.0000
  C   C142      1.0  0.63287  0.72311  0.00280  1.0000
  C   C143      1.0  0.61760  0.72309  0.00278  1.0000
  C   C144      1.0  0.60988  0.70981  0.00276  1.0000
  H   H41       1.0  0.70983  0.59855  0.00276  1.0000
  O   O17       1.0  0.73602  0.61021  0.00279  1.0000
  O   O18       1.0  0.73606  0.64036  0.00282  1.0000
  H   H42       1.0  0.70990  0.65185  0.00280  1.0000
  H   H43       1.0  0.65148  0.54017  0.00265  1.0000
  O   O19       1.0  0.63982  0.51397  0.00261  1.0000
  O   O20       1.0  0.60966  0.51394  0.00258  1.0000
  H   H44       1.0  0.59819  0.54011  0.00260  1.0000
  H   H45       1.0  0.54007  0.59821  0.00259  1.0000
  O   O21       1.0  0.51393  0.60968  0.00258  1.0000
  O   O22       1.0  0.51400  0.63980  0.00261  1.0000
  H   H46       1.0  0.54019  0.65146  0.00264  1.0000
  H   H47       1.0  0.65179  0.70993  0.00280  1.0000
  O   O23       1.0  0.64034  0.73607  0.00282  1.0000
  O   O24       1.0  0.61022  0.73600  0.00279  1.0000
  H   H48       1.0  0.59856  0.70982  0.00275  1.0000
  Ni  Ni3       1.0  0.62499  0.62502  0.00270  1.0000
  C   C145      1.0  0.35955  0.56679  0.00198  1.0000
  C   C146      1.0  0.36739  0.55349  0.00197  1.0000
  C   C147      1.0  0.38285  0.55348  0.00198  1.0000
  C   C148      1.0  0.39061  0.56676  0.00201  1.0000
  C   C149      1.0  0.38250  0.57969  0.00201  1.0000
  C   C150      1.0  0.36759  0.57970  0.00200  1.0000
  C   C151      1.0  0.36288  0.59423  0.00201  1.0000
  N   N25       1.0  0.37501  0.60337  0.00203  1.0000
  C   C152      1.0  0.38717  0.59421  0.00203  1.0000
  N   N26       1.0  0.40160  0.59845  0.00205  1.0000
  C   C153      1.0  0.40583  0.61286  0.00207  1.0000
  N   N27       1.0  0.39667  0.62502  0.00207  1.0000
  C   C154      1.0  0.40579  0.63714  0.00209  1.0000
  C   C155      1.0  0.42031  0.63242  0.00210  1.0000
  C   C156      1.0  0.42035  0.61753  0.00208  1.0000
  N   N28       1.0  0.37501  0.64668  0.00207  1.0000
  C   C157      1.0  0.38713  0.65579  0.00209  1.0000
  N   N29       1.0  0.40153  0.65155  0.00210  1.0000
  C   C158      1.0  0.38241  0.67033  0.00210  1.0000
  C   C159      1.0  0.36752  0.67035  0.00209  1.0000
  C   C160      1.0  0.36285  0.65583  0.00207  1.0000
  C   C161      1.0  0.43328  0.60943  0.00209  1.0000
  C   C162      1.0  0.44655  0.61716  0.00211  1.0000
  C   C163      1.0  0.44652  0.63260  0.00212  1.0000
  C   C164      1.0  0.43323  0.64044  0.00212  1.0000
  C   C165      1.0  0.35941  0.68328  0.00209  1.0000
  C   C166      1.0  0.36715  0.69656  0.00211  1.0000
  C   C167      1.0  0.38260  0.69653  0.00213  1.0000
  C   C168      1.0  0.39043  0.68323  0.00212  1.0000
  N   N30       1.0  0.35335  0.62502  0.00203  1.0000
  C   C169      1.0  0.34421  0.63718  0.00203  1.0000
  N   N31       1.0  0.34844  0.65160  0.00205  1.0000
  C   C170      1.0  0.32967  0.63252  0.00202  1.0000
  C   C171      1.0  0.32970  0.61761  0.00200  1.0000
  C   C172      1.0  0.34422  0.61289  0.00201  1.0000
  C   C173      1.0  0.31678  0.60958  0.00198  1.0000
  C   C174      1.0  0.30347  0.61742  0.00198  1.0000
  C   C175      1.0  0.30346  0.63287  0.00199  1.0000
  C   C176      1.0  0.31675  0.64062  0.00201  1.0000
  N   N32       1.0  0.34847  0.59847  0.00200  1.0000
  H   H49       1.0  0.34824  0.56695  0.00197  1.0000
  H   H50       1.0  0.40194  0.56691  0.00202  1.0000
  H   H51       1.0  0.43314  0.59811  0.00208  1.0000
  H   H52       1.0  0.43305  0.65176  0.00213  1.0000
  H   H53       1.0  0.34810  0.68315  0.00208  1.0000
  H   H54       1.0  0.40175  0.68305  0.00213  1.0000
  H   H55       1.0  0.31695  0.59826  0.00197  1.0000
  H   H56       1.0  0.31690  0.65195  0.00202  1.0000
  C   C177      1.0  0.29018  0.60986  0.00196  1.0000
  C   C178      1.0  0.27691  0.61760  0.00195  1.0000
  C   C179      1.0  0.27689  0.63288  0.00197  1.0000
  C   C180      1.0  0.29015  0.64052  0.00199  1.0000
  C   C181      1.0  0.35984  0.54018  0.00195  1.0000
  C   C182      1.0  0.36756  0.52691  0.00194  1.0000
  C   C183      1.0  0.38285  0.52690  0.00196  1.0000
  C   C184      1.0  0.39049  0.54016  0.00198  1.0000
  C   C185      1.0  0.45987  0.60952  0.00211  1.0000
  C   C186      1.0  0.47311  0.61715  0.00213  1.0000
  C   C187      1.0  0.47308  0.63243  0.00215  1.0000
  C   C188      1.0  0.45980  0.64015  0.00214  1.0000
  C   C189      1.0  0.35951  0.70988  0.00212  1.0000
  C   C190      1.0  0.36713  0.72311  0.00214  1.0000
  C   C191      1.0  0.38240  0.72309  0.00215  1.0000
  C   C192      1.0  0.39012  0.70981  0.00215  1.0000
  H   H57       1.0  0.29017  0.59855  0.00195  1.0000
  O   O25       1.0  0.26398  0.61021  0.00193  1.0000
  O   O26       1.0  0.26394  0.64036  0.00196  1.0000
  H   H58       1.0  0.29010  0.65185  0.00200  1.0000
  H   H59       1.0  0.34852  0.54017  0.00194  1.0000
  O   O27       1.0  0.36018  0.51397  0.00192  1.0000
  O   O28       1.0  0.39033  0.51394  0.00195  1.0000
  H   H60       1.0  0.40181  0.54011  0.00199  1.0000
  H   H61       1.0  0.45993  0.59821  0.00210  1.0000
  O   O29       1.0  0.48607  0.60968  0.00214  1.0000
  O   O30       1.0  0.48600  0.63980  0.00217  1.0000
  H   H62       1.0  0.45981  0.65146  0.00215  1.0000
  H   H63       1.0  0.34821  0.70993  0.00211  1.0000
  O   O31       1.0  0.35967  0.73607  0.00215  1.0000
  O   O32       1.0  0.38978  0.73600  0.00217  1.0000
  H   H64       1.0  0.40144  0.70982  0.00216  1.0000
  Ni  Ni4       1.0  0.37501  0.62502  0.00205  1.0000
  C   C193      1.0  0.10941  0.37415  0.76855  1.0000
  C   C194      1.0  0.11722  0.37416  0.71542  1.0000
  C   C195      1.0  0.13268  0.37419  0.71552  1.0000
  C   C196      1.0  0.14047  0.37420  0.76873  1.0000
  C   C197      1.0  0.13239  0.37418  0.82037  1.0000
  C   C198      1.0  0.11748  0.37416  0.82029  1.0000
  C   C199      1.0  0.11280  0.37415  0.87837  1.0000
  N   N33       1.0  0.12496  0.37417  0.91502  1.0000
  C   C200      1.0  0.13710  0.37419  0.87851  1.0000
  N   N34       1.0  0.15154  0.37422  0.89558  1.0000
  C   C201      1.0  0.15580  0.37422  0.95326  1.0000
  N   N35       1.0  0.14667  0.37421  0.00181  1.0000
  C   C202      1.0  0.15582  0.37422  0.05040  1.0000
  C   C203      1.0  0.17033  0.37425  0.03164  1.0000
  C   C204      1.0  0.17034  0.37425  0.97207  1.0000
  N   N36       1.0  0.12507  0.37417  0.08828  1.0000
  C   C205      1.0  0.13721  0.37419  0.12483  1.0000
  N   N37       1.0  0.15160  0.37422  0.10799  1.0000
  C   C206      1.0  0.13252  0.37419  0.18294  1.0000
  C   C207      1.0  0.11763  0.37416  0.18290  1.0000
  C   C208      1.0  0.11293  0.37415  0.12479  1.0000
  C   C209      1.0  0.18325  0.37427  0.93978  1.0000
  C   C210      1.0  0.19654  0.37429  0.97082  1.0000
  C   C211      1.0  0.19654  0.37429  0.03260  1.0000
  C   C212      1.0  0.18327  0.37427  0.06384  1.0000
  C   C213      1.0  0.10955  0.37415  0.23458  1.0000
  C   C214      1.0  0.11733  0.37416  0.28776  1.0000
  C   C215      1.0  0.13277  0.37419  0.28776  1.0000
  C   C216      1.0  0.14058  0.37420  0.23463  1.0000
  N   N38       1.0  0.10335  0.37414  0.00147  1.0000
  C   C217      1.0  0.09424  0.37412  0.05001  1.0000
  N   N39       1.0  0.09851  0.37413  0.10775  1.0000
  C   C218      1.0  0.07969  0.37410  0.03123  1.0000
  C   C219      1.0  0.07968  0.37410  0.97161  1.0000
  C   C220      1.0  0.09420  0.37412  0.95285  1.0000
  C   C221      1.0  0.06674  0.37408  0.93939  1.0000
  C   C222      1.0  0.05345  0.37406  0.97061  1.0000
  C   C223      1.0  0.05348  0.37406  0.03243  1.0000
  C   C224      1.0  0.06679  0.37408  0.06355  1.0000
  N   N40       1.0  0.09840  0.37413  0.89518  1.0000
  H   H65       1.0  0.09810  0.37413  0.76913  1.0000
  H   H66       1.0  0.15180  0.37422  0.76942  1.0000
  H   H67       1.0  0.18308  0.37427  0.89450  1.0000
  H   H68       1.0  0.18311  0.37427  0.10910  1.0000
  H   H69       1.0  0.09824  0.37413  0.23393  1.0000
  H   H70       1.0  0.15189  0.37422  0.23399  1.0000
  H   H71       1.0  0.06688  0.37408  0.89410  1.0000
  H   H72       1.0  0.06696  0.37408  0.10886  1.0000
  C   C225      1.0  0.04015  0.37403  0.94028  1.0000
  C   C226      1.0  0.02689  0.37401  0.97109  1.0000
  C   C227      1.0  0.02691  0.37401  0.03224  1.0000
  C   C228      1.0  0.04019  0.37403  0.06289  1.0000
  C   C229      1.0  0.10964  0.37415  0.66214  1.0000
  C   C230      1.0  0.11733  0.37416  0.60911  1.0000
  C   C231      1.0  0.13261  0.37419  0.60919  1.0000
  C   C232      1.0  0.14028  0.37420  0.66230  1.0000
  C   C233      1.0  0.20984  0.37431  0.94036  1.0000
  C   C234      1.0  0.22310  0.37433  0.97102  1.0000
  C   C235      1.0  0.22310  0.37433  0.03215  1.0000
  C   C236      1.0  0.20984  0.37431  0.06290  1.0000
  C   C237      1.0  0.10972  0.37415  0.34096  1.0000
  C   C238      1.0  0.11737  0.37416  0.39396  1.0000
  C   C239      1.0  0.13264  0.37419  0.39400  1.0000
  C   C240      1.0  0.14033  0.37420  0.34096  1.0000
  H   H73       1.0  0.04011  0.37403  0.89500  1.0000
  O   O33       1.0  0.01394  0.37399  0.94142  1.0000
  O   O34       1.0  0.01398  0.37399  0.06205  1.0000
  H   H74       1.0  0.04017  0.37403  0.10821  1.0000
  H   H75       1.0  0.09832  0.37413  0.66198  1.0000
  O   O35       1.0  0.10991  0.37415  0.55729  1.0000
  O   O36       1.0  0.14007  0.37420  0.55744  1.0000
  H   H76       1.0  0.15161  0.37422  0.66220  1.0000
  H   H77       1.0  0.20987  0.37431  0.89512  1.0000
  O   O37       1.0  0.23604  0.37436  0.94123  1.0000
  O   O38       1.0  0.23604  0.37436  0.06174  1.0000
  H   H78       1.0  0.20987  0.37431  0.10815  1.0000
  H   H79       1.0  0.09842  0.37413  0.34108  1.0000
  O   O39       1.0  0.10994  0.37415  0.44574  1.0000
  O   O40       1.0  0.14005  0.37420  0.44573  1.0000
  H   H80       1.0  0.15164  0.37422  0.34110  1.0000
  Ni  Ni5       1.0  0.12501  0.37417  0.00164  1.0000
  C   C241      1.0  0.62573  0.18325  0.06451  1.0000
  C   C242      1.0  0.62571  0.19653  0.03328  1.0000
  C   C243      1.0  0.62571  0.19650  0.97143  1.0000
  C   C244      1.0  0.62573  0.18320  0.94028  1.0000
  C   C245      1.0  0.62575  0.17029  0.97261  1.0000
  C   C246      1.0  0.62575  0.17031  0.03225  1.0000
  C   C247      1.0  0.62577  0.15580  0.05098  1.0000
  N   N41       1.0  0.62579  0.14663  0.00236  1.0000
  C   C248      1.0  0.62577  0.15576  0.95380  1.0000
  N   N42       1.0  0.62578  0.15149  0.89603  1.0000
  C   C249      1.0  0.62580  0.13707  0.87902  1.0000
  N   N43       1.0  0.62582  0.12493  0.91554  1.0000
  C   C250      1.0  0.62584  0.11278  0.87898  1.0000
  C   C251      1.0  0.62583  0.11747  0.82091  1.0000
  C   C252      1.0  0.62581  0.13236  0.82088  1.0000
  N   N44       1.0  0.62586  0.10332  0.00199  1.0000
  C   C253      1.0  0.62587  0.09418  0.95343  1.0000
  N   N45       1.0  0.62587  0.09839  0.89586  1.0000
  C   C254      1.0  0.62590  0.07966  0.97219  1.0000
  C   C255      1.0  0.62590  0.07967  0.03176  1.0000
  C   C256      1.0  0.62587  0.09420  0.05054  1.0000
  C   C257      1.0  0.62580  0.14043  0.76922  1.0000
  C   C258      1.0  0.62581  0.13267  0.71608  1.0000
  C   C259      1.0  0.62584  0.11722  0.71606  1.0000
  C   C260      1.0  0.62585  0.10942  0.76919  1.0000
  C   C261      1.0  0.62592  0.06675  0.06407  1.0000
  C   C262      1.0  0.62594  0.05345  0.03300  1.0000
  C   C263      1.0  0.62594  0.05345  0.97121  1.0000
  C   C264      1.0  0.62592  0.06673  0.93999  1.0000
  N   N46       1.0  0.62582  0.12503  0.08883  1.0000
  C   C265      1.0  0.62584  0.11289  0.12529  1.0000
  N   N47       1.0  0.62587  0.09846  0.10822  1.0000
  C   C266      1.0  0.62583  0.11759  0.18346  1.0000
  C   C267      1.0  0.62581  0.13250  0.18349  1.0000
  C   C268      1.0  0.62580  0.13718  0.12543  1.0000
  C   C269      1.0  0.62580  0.14056  0.23525  1.0000
  C   C270      1.0  0.62581  0.13275  0.28840  1.0000
  C   C271      1.0  0.62584  0.11730  0.28832  1.0000
  C   C272      1.0  0.62585  0.10952  0.23509  1.0000
  N   N48       1.0  0.62578  0.15160  0.10858  1.0000
  H   H81       1.0  0.62573  0.18311  0.10978  1.0000
  H   H82       1.0  0.62573  0.18302  0.89497  1.0000
  H   H83       1.0  0.62578  0.15175  0.76988  1.0000
  H   H84       1.0  0.62587  0.09810  0.76980  1.0000
  H   H85       1.0  0.62592  0.06692  0.10931  1.0000
  H   H86       1.0  0.62592  0.06689  0.89473  1.0000
  H   H87       1.0  0.62578  0.15188  0.23466  1.0000
  H   H88       1.0  0.62587  0.09819  0.23440  1.0000
  C   C273      1.0  0.62580  0.14034  0.34161  1.0000
  C   C274      1.0  0.62581  0.13264  0.39464  1.0000
  C   C275      1.0  0.62583  0.11735  0.39457  1.0000
  C   C276      1.0  0.62585  0.10969  0.34147  1.0000
  C   C277      1.0  0.62568  0.20985  0.06360  1.0000
  C   C278      1.0  0.62566  0.22311  0.03282  1.0000
  C   C279      1.0  0.62566  0.22308  0.97168  1.0000
  C   C280      1.0  0.62568  0.20981  0.94101  1.0000
  C   C281      1.0  0.62580  0.14028  0.66288  1.0000
  C   C282      1.0  0.62581  0.13261  0.60984  1.0000
  C   C283      1.0  0.62584  0.11733  0.60985  1.0000
  C   C284      1.0  0.62585  0.10964  0.66288  1.0000
  C   C285      1.0  0.62596  0.04016  0.06345  1.0000
  C   C286      1.0  0.62598  0.02691  0.03285  1.0000
  C   C287      1.0  0.62598  0.02689  0.97177  1.0000
  C   C288      1.0  0.62596  0.04015  0.94099  1.0000
  H   H89       1.0  0.62578  0.15166  0.34176  1.0000
  O   O41       1.0  0.62580  0.14006  0.44643  1.0000
  O   O42       1.0  0.62585  0.10991  0.44631  1.0000
  H   H90       1.0  0.62587  0.09836  0.34157  1.0000
  H   H91       1.0  0.62568  0.20990  0.10888  1.0000
  O   O43       1.0  0.62564  0.23606  0.06248  1.0000
  O   O44       1.0  0.62564  0.23602  0.94184  1.0000
  H   H92       1.0  0.62568  0.20983  0.89572  1.0000
  H   H93       1.0  0.62578  0.15159  0.66275  1.0000
  O   O45       1.0  0.62580  0.14005  0.55807  1.0000
  O   O46       1.0  0.62585  0.10993  0.55810  1.0000
  H   H94       1.0  0.62587  0.09833  0.66276  1.0000
  H   H95       1.0  0.62596  0.04013  0.10865  1.0000
  O   O47       1.0  0.62600  0.01397  0.06260  1.0000
  O   O48       1.0  0.62600  0.01396  0.94215  1.0000
  H   H96       1.0  0.62596  0.04011  0.89574  1.0000
  Ni  Ni6       1.0  0.62582  0.12498  0.00218  1.0000
  C   C289      1.0  0.89058  0.62585  0.23557  1.0000
  C   C290      1.0  0.88278  0.62584  0.28869  1.0000
  C   C291      1.0  0.86732  0.62581  0.28859  1.0000
  C   C292      1.0  0.85952  0.62580  0.23539  1.0000
  C   C293      1.0  0.86761  0.62582  0.18374  1.0000
  C   C294      1.0  0.88252  0.62584  0.18382  1.0000
  C   C295      1.0  0.88719  0.62585  0.12575  1.0000
  N   N49       1.0  0.87504  0.62583  0.08909  1.0000
  C   C296      1.0  0.86290  0.62581  0.12560  1.0000
  N   N50       1.0  0.84846  0.62578  0.10854  1.0000
  C   C297      1.0  0.84420  0.62578  0.05085  1.0000
  N   N51       1.0  0.85333  0.62579  0.00230  1.0000
  C   C298      1.0  0.84418  0.62578  0.95371  1.0000
  C   C299      1.0  0.82967  0.62575  0.97247  1.0000
  C   C300      1.0  0.82966  0.62575  0.03204  1.0000
  N   N52       1.0  0.87493  0.62583  0.91583  1.0000
  C   C301      1.0  0.86279  0.62581  0.87928  1.0000
  N   N53       1.0  0.84840  0.62578  0.89613  1.0000
  C   C302      1.0  0.86748  0.62581  0.82118  1.0000
  C   C303      1.0  0.88237  0.62584  0.82121  1.0000
  C   C304      1.0  0.88707  0.62585  0.87932  1.0000
  C   C305      1.0  0.81675  0.62573  0.06434  1.0000
  C   C306      1.0  0.80346  0.62571  0.03329  1.0000
  C   C307      1.0  0.80345  0.62571  0.97151  1.0000
  C   C308      1.0  0.81673  0.62573  0.94027  1.0000
  C   C309      1.0  0.89045  0.62585  0.76954  1.0000
  C   C310      1.0  0.88267  0.62584  0.71635  1.0000
  C   C311      1.0  0.86723  0.62581  0.71636  1.0000
  C   C312      1.0  0.85943  0.62580  0.76949  1.0000
  N   N54       1.0  0.89665  0.62586  0.00265  1.0000
  C   C313      1.0  0.90576  0.62588  0.95410  1.0000
  N   N55       1.0  0.90149  0.62587  0.89637  1.0000
  C   C314      1.0  0.92031  0.62590  0.97289  1.0000
  C   C315      1.0  0.92032  0.62590  0.03251  1.0000
  C   C316      1.0  0.90580  0.62588  0.05127  1.0000
  C   C317      1.0  0.93326  0.62592  0.06473  1.0000
  C   C318      1.0  0.94655  0.62595  0.03351  1.0000
  C   C319      1.0  0.94652  0.62595  0.97169  1.0000
  C   C320      1.0  0.93321  0.62592  0.94056  1.0000
  N   N56       1.0  0.90160  0.62587  0.10893  1.0000
  H   H97       1.0  0.90190  0.62587  0.23499  1.0000
  H   H98       1.0  0.84820  0.62578  0.23469  1.0000
  H   H99       1.0  0.81692  0.62573  0.10962  1.0000
  H   H100      1.0  0.81689  0.62573  0.89501  1.0000
  H   H101      1.0  0.90176  0.62587  0.77018  1.0000
  H   H102      1.0  0.84811  0.62578  0.77012  1.0000
  H   H103      1.0  0.93312  0.62592  0.11002  1.0000
  H   H104      1.0  0.93304  0.62592  0.89526  1.0000
  C   C321      1.0  0.95985  0.62597  0.06384  1.0000
  C   C322      1.0  0.97311  0.62599  0.03304  1.0000
  C   C323      1.0  0.97308  0.62599  0.97189  1.0000
  C   C324      1.0  0.95981  0.62597  0.94123  1.0000
  C   C325      1.0  0.89036  0.62585  0.34198  1.0000
  C   C326      1.0  0.88267  0.62584  0.39501  1.0000
  C   C327      1.0  0.86738  0.62581  0.39493  1.0000
  C   C328      1.0  0.85971  0.62580  0.34182  1.0000
  C   C329      1.0  0.79016  0.62569  0.06375  1.0000
  C   C330      1.0  0.77690  0.62567  0.03309  1.0000
  C   C331      1.0  0.77690  0.62567  0.97196  1.0000
  C   C332      1.0  0.79016  0.62569  0.94121  1.0000
  C   C333      1.0  0.89029  0.62585  0.66316  1.0000
  C   C334      1.0  0.88263  0.62584  0.61015  1.0000
  C   C335      1.0  0.86736  0.62581  0.61012  1.0000
  C   C336      1.0  0.85967  0.62580  0.66315  1.0000
  H   H105      1.0  0.95989  0.62597  0.10912  1.0000
  O   O49       1.0  0.98605  0.62601  0.06271  1.0000
  O   O50       1.0  0.98602  0.62601  0.94208  1.0000
  H   H106      1.0  0.95983  0.62597  0.89591  1.0000
  H   H107      1.0  0.90168  0.62587  0.34214  1.0000
  O   O51       1.0  0.89009  0.62585  0.44683  1.0000
  O   O52       1.0  0.85993  0.62580  0.44668  1.0000
  H   H108      1.0  0.84839  0.62578  0.34191  1.0000
  H   H109      1.0  0.79013  0.62569  0.10899  1.0000
  O   O53       1.0  0.76396  0.62564  0.06287  1.0000
  O   O54       1.0  0.76396  0.62564  0.94237  1.0000
  H   H110      1.0  0.79012  0.62569  0.89596  1.0000
  H   H111      1.0  0.90159  0.62587  0.66304  1.0000
  O   O55       1.0  0.89007  0.62585  0.55838  1.0000
  O   O56       1.0  0.85995  0.62580  0.55838  1.0000
  H   H112      1.0  0.84836  0.62578  0.66302  1.0000
  Ni  Ni7       1.0  0.87499  0.62583  0.00248  1.0000
  C   C337      1.0  0.37427  0.81675  0.93963  1.0000
  C   C338      1.0  0.37430  0.80347  0.97085  1.0000
  C   C339      1.0  0.37430  0.80350  0.03270  1.0000
  C   C340      1.0  0.37427  0.81680  0.06386  1.0000
  C   C341      1.0  0.37425  0.82971  0.03152  1.0000
  C   C342      1.0  0.37425  0.82968  0.97189  1.0000
  C   C343      1.0  0.37423  0.84420  0.95316  1.0000
  N   N57       1.0  0.37421  0.85337  0.00178  1.0000
  C   C344      1.0  0.37423  0.84424  0.05033  1.0000
  N   N58       1.0  0.37422  0.84851  0.10810  1.0000
  C   C345      1.0  0.37420  0.86293  0.12511  1.0000
  N   N59       1.0  0.37418  0.87507  0.08859  1.0000
  C   C346      1.0  0.37416  0.88722  0.12516  1.0000
  C   C347      1.0  0.37417  0.88253  0.18322  1.0000
  C   C348      1.0  0.37419  0.86764  0.18325  1.0000
  N   N60       1.0  0.37414  0.89668  0.00215  1.0000
  C   C349      1.0  0.37413  0.90582  0.05070  1.0000
  N   N61       1.0  0.37414  0.90161  0.10828  1.0000
  C   C350      1.0  0.37411  0.92034  0.03195  1.0000
  C   C351      1.0  0.37411  0.92033  0.97237  1.0000
  C   C352      1.0  0.37413  0.90580  0.95359  1.0000
  C   C353      1.0  0.37420  0.85957  0.23491  1.0000
  C   C354      1.0  0.37419  0.86733  0.28805  1.0000
  C   C355      1.0  0.37417  0.88278  0.28807  1.0000
  C   C356      1.0  0.37415  0.89058  0.23495  1.0000
  C   C357      1.0  0.37408  0.93325  0.94007  1.0000
  C   C358      1.0  0.37406  0.94655  0.97114  1.0000
  C   C359      1.0  0.37406  0.94655  0.03292  1.0000
  C   C360      1.0  0.37408  0.93327  0.06415  1.0000
  N   N62       1.0  0.37418  0.87497  0.91531  1.0000
  C   C361      1.0  0.37416  0.88711  0.87884  1.0000
  N   N63       1.0  0.37414  0.90154  0.89591  1.0000
  C   C362      1.0  0.37417  0.88241  0.82068  1.0000
  C   C363      1.0  0.37419  0.86750  0.82064  1.0000
  C   C364      1.0  0.37420  0.86282  0.87871  1.0000
  C   C365      1.0  0.37420  0.85944  0.76889  1.0000
  C   C366      1.0  0.37419  0.86725  0.71573  1.0000
  C   C367      1.0  0.37417  0.88270  0.71581  1.0000
  C   C368      1.0  0.37415  0.89048  0.76905  1.0000
  N   N64       1.0  0.37422  0.84840  0.89555  1.0000
  H   H113      1.0  0.37427  0.81689  0.89436  1.0000
  H   H114      1.0  0.37427  0.81698  0.10917  1.0000
  H   H115      1.0  0.37422  0.84825  0.23425  1.0000
  H   H116      1.0  0.37414  0.90190  0.23433  1.0000
  H   H117      1.0  0.37409  0.93308  0.89482  1.0000
  H   H118      1.0  0.37409  0.93311  0.10941  1.0000
  H   H119      1.0  0.37422  0.84812  0.76947  1.0000
  H   H120      1.0  0.37414  0.90181  0.76974  1.0000
  C   C369      1.0  0.37420  0.85966  0.66252  1.0000
  C   C370      1.0  0.37419  0.86736  0.60950  1.0000
  C   C371      1.0  0.37417  0.88265  0.60957  1.0000
  C   C372      1.0  0.37415  0.89031  0.66267  1.0000
  C   C373      1.0  0.37432  0.79015  0.94054  1.0000
  C   C374      1.0  0.37434  0.77689  0.97132  1.0000
  C   C375      1.0  0.37434  0.77692  0.03246  1.0000
  C   C376      1.0  0.37432  0.79019  0.06313  1.0000
  C   C377      1.0  0.37420  0.85972  0.34126  1.0000
  C   C378      1.0  0.37419  0.86739  0.39430  1.0000
  C   C379      1.0  0.37417  0.88267  0.39428  1.0000
  C   C380      1.0  0.37415  0.89036  0.34125  1.0000
  C   C381      1.0  0.37404  0.95984  0.94069  1.0000
  C   C382      1.0  0.37402  0.97309  0.97129  1.0000
  C   C383      1.0  0.37402  0.97311  0.03236  1.0000
  C   C384      1.0  0.37404  0.95985  0.06315  1.0000
  H   H121      1.0  0.37422  0.84834  0.66237  1.0000
  O   O57       1.0  0.37420  0.85994  0.55771  1.0000
  O   O58       1.0  0.37415  0.89009  0.55783  1.0000
  H   H122      1.0  0.37414  0.90164  0.66257  1.0000
  H   H123      1.0  0.37432  0.79010  0.89525  1.0000
  O   O59       1.0  0.37436  0.76394  0.94166  1.0000
  O   O60       1.0  0.37436  0.76398  0.06229  1.0000
  H   H124      1.0  0.37432  0.79017  0.10841  1.0000
  H   H125      1.0  0.37422  0.84841  0.34139  1.0000
  O   O61       1.0  0.37420  0.85995  0.44607  1.0000
  O   O62       1.0  0.37415  0.89007  0.44603  1.0000
  H   H126      1.0  0.37414  0.90167  0.34137  1.0000
  H   H127      1.0  0.37404  0.95987  0.89549  1.0000
  O   O63       1.0  0.37400  0.98603  0.94154  1.0000
  O   O64       1.0  0.37400  0.98604  0.06199  1.0000
  H   H128      1.0  0.37404  0.95989  0.10840  1.0000
  Ni  Ni8       1.0  0.37418  0.87502  0.00196  1.0000
  C   C385      1.0  0.10941  0.62586  0.76920  1.0000
  C   C386      1.0  0.11722  0.62584  0.71607  1.0000
  C   C387      1.0  0.13268  0.62582  0.71617  1.0000
  C   C388      1.0  0.14047  0.62581  0.76938  1.0000
  C   C389      1.0  0.13239  0.62582  0.82103  1.0000
  C   C390      1.0  0.11748  0.62584  0.82094  1.0000
  C   C391      1.0  0.11280  0.62585  0.87902  1.0000
  N   N65       1.0  0.12496  0.62583  0.91567  1.0000
  C   C392      1.0  0.13710  0.62581  0.87916  1.0000
  N   N66       1.0  0.15154  0.62579  0.89623  1.0000
  C   C393      1.0  0.15580  0.62578  0.95391  1.0000
  N   N67       1.0  0.14667  0.62580  0.00247  1.0000
  C   C394      1.0  0.15582  0.62578  0.05105  1.0000
  C   C395      1.0  0.17033  0.62576  0.03230  1.0000
  C   C396      1.0  0.17033  0.62576  0.97272  1.0000
  N   N68       1.0  0.12506  0.62583  0.08893  1.0000
  C   C397      1.0  0.13721  0.62581  0.12548  1.0000
  N   N69       1.0  0.15160  0.62579  0.10864  1.0000
  C   C398      1.0  0.13252  0.62582  0.18359  1.0000
  C   C399      1.0  0.11763  0.62584  0.18356  1.0000
  C   C400      1.0  0.11293  0.62585  0.12544  1.0000
  C   C401      1.0  0.18325  0.62574  0.94043  1.0000
  C   C402      1.0  0.19653  0.62571  0.97147  1.0000
  C   C403      1.0  0.19654  0.62571  0.03325  1.0000
  C   C404      1.0  0.18326  0.62574  0.06449  1.0000
  C   C405      1.0  0.10955  0.62586  0.23523  1.0000
  C   C406      1.0  0.11732  0.62584  0.28841  1.0000
  C   C407      1.0  0.13277  0.62582  0.28841  1.0000
  C   C408      1.0  0.14057  0.62581  0.23528  1.0000
  N   N70       1.0  0.10335  0.62587  0.00212  1.0000
  C   C409      1.0  0.09423  0.62588  0.05067  1.0000
  N   N71       1.0  0.09851  0.62588  0.10840  1.0000
  C   C410      1.0  0.07969  0.62591  0.03188  1.0000
  C   C411      1.0  0.07968  0.62591  0.97226  1.0000
  C   C412      1.0  0.09420  0.62588  0.95350  1.0000
  C   C413      1.0  0.06674  0.62593  0.94004  1.0000
  C   C414      1.0  0.05345  0.62595  0.97126  1.0000
  C   C415      1.0  0.05348  0.62595  0.03308  1.0000
  C   C416      1.0  0.06679  0.62593  0.06421  1.0000
  N   N72       1.0  0.09840  0.62588  0.89583  1.0000
  H   H129      1.0  0.09810  0.62588  0.76978  1.0000
  H   H130      1.0  0.15180  0.62579  0.77007  1.0000
  H   H131      1.0  0.18308  0.62574  0.89515  1.0000
  H   H132      1.0  0.18311  0.62574  0.10975  1.0000
  H   H133      1.0  0.09824  0.62588  0.23458  1.0000
  H   H134      1.0  0.15189  0.62579  0.23464  1.0000
  H   H135      1.0  0.06688  0.62593  0.89475  1.0000
  H   H136      1.0  0.06696  0.62593  0.10951  1.0000
  C   C417      1.0  0.04015  0.62597  0.94093  1.0000
  C   C418      1.0  0.02689  0.62599  0.97174  1.0000
  C   C419      1.0  0.02691  0.62599  0.03289  1.0000
  C   C420      1.0  0.04019  0.62597  0.06354  1.0000
  C   C421      1.0  0.10964  0.62586  0.66279  1.0000
  C   C422      1.0  0.11733  0.62584  0.60976  1.0000
  C   C423      1.0  0.13261  0.62582  0.60984  1.0000
  C   C424      1.0  0.14028  0.62581  0.66295  1.0000
  C   C425      1.0  0.20983  0.62569  0.94101  1.0000
  C   C426      1.0  0.22310  0.62567  0.97167  1.0000
  C   C427      1.0  0.22310  0.62567  0.03280  1.0000
  C   C428      1.0  0.20984  0.62569  0.06355  1.0000
  C   C429      1.0  0.10971  0.62586  0.34161  1.0000
  C   C430      1.0  0.11737  0.62584  0.39462  1.0000
  C   C431      1.0  0.13264  0.62582  0.39465  1.0000
  C   C432      1.0  0.14033  0.62581  0.34162  1.0000
  H   H137      1.0  0.04011  0.62597  0.89566  1.0000
  O   O65       1.0  0.01394  0.62601  0.94207  1.0000
  O   O66       1.0  0.01398  0.62601  0.06270  1.0000
  H   H138      1.0  0.04017  0.62597  0.10886  1.0000
  H   H139      1.0  0.09832  0.62588  0.66263  1.0000
  O   O67       1.0  0.10991  0.62586  0.55794  1.0000
  O   O68       1.0  0.14007  0.62581  0.55809  1.0000
  H   H140      1.0  0.15161  0.62579  0.66285  1.0000
  H   H141      1.0  0.20987  0.62569  0.89577  1.0000
  O   O69       1.0  0.23604  0.62565  0.94189  1.0000
  O   O70       1.0  0.23604  0.62565  0.06239  1.0000
  H   H142      1.0  0.20987  0.62569  0.10880  1.0000
  H   H143      1.0  0.09841  0.62588  0.34173  1.0000
  O   O71       1.0  0.10993  0.62586  0.44639  1.0000
  O   O72       1.0  0.14004  0.62581  0.44638  1.0000
  H   H144      1.0  0.15164  0.62579  0.34175  1.0000
  Ni  Ni9       1.0  0.12501  0.62583  0.00229  1.0000
  C   C433      1.0  0.37428  0.18325  0.06386  1.0000
  C   C434      1.0  0.37430  0.19653  0.03263  1.0000
  C   C435      1.0  0.37430  0.19650  0.97078  1.0000
  C   C436      1.0  0.37428  0.18320  0.93962  1.0000
  C   C437      1.0  0.37426  0.17029  0.97196  1.0000
  C   C438      1.0  0.37426  0.17032  0.03160  1.0000
  C   C439      1.0  0.37423  0.15580  0.05033  1.0000
  N   N73       1.0  0.37422  0.14663  0.00170  1.0000
  C   C440      1.0  0.37423  0.15576  0.95315  1.0000
  N   N74       1.0  0.37423  0.15149  0.89538  1.0000
  C   C441      1.0  0.37420  0.13707  0.87837  1.0000
  N   N75       1.0  0.37418  0.12493  0.91489  1.0000
  C   C442      1.0  0.37416  0.11278  0.87833  1.0000
  C   C443      1.0  0.37417  0.11747  0.82026  1.0000
  C   C444      1.0  0.37419  0.13236  0.82023  1.0000
  N   N76       1.0  0.37415  0.10332  0.00133  1.0000
  C   C445      1.0  0.37413  0.09418  0.95278  1.0000
  N   N77       1.0  0.37414  0.09839  0.89520  1.0000
  C   C446      1.0  0.37411  0.07966  0.97153  1.0000
  C   C447      1.0  0.37411  0.07967  0.03111  1.0000
  C   C448      1.0  0.37413  0.09420  0.04989  1.0000
  C   C449      1.0  0.37421  0.14043  0.76857  1.0000
  C   C450      1.0  0.37419  0.13267  0.71543  1.0000
  C   C451      1.0  0.37417  0.11722  0.71541  1.0000
  C   C452      1.0  0.37416  0.10942  0.76854  1.0000
  C   C453      1.0  0.37409  0.06675  0.06341  1.0000
  C   C454      1.0  0.37407  0.05346  0.03234  1.0000
  C   C455      1.0  0.37407  0.05345  0.97056  1.0000
  C   C456      1.0  0.37409  0.06673  0.93934  1.0000
  N   N78       1.0  0.37418  0.12503  0.08818  1.0000
  C   C457      1.0  0.37416  0.11290  0.12464  1.0000
  N   N79       1.0  0.37414  0.09846  0.10757  1.0000
  C   C458      1.0  0.37417  0.11759  0.18281  1.0000
  C   C459      1.0  0.37419  0.13250  0.18284  1.0000
  C   C460      1.0  0.37420  0.13718  0.12477  1.0000
  C   C461      1.0  0.37421  0.14056  0.23459  1.0000
  C   C462      1.0  0.37420  0.13276  0.28775  1.0000
  C   C463      1.0  0.37417  0.11730  0.28767  1.0000
  C   C464      1.0  0.37416  0.10952  0.23444  1.0000
  N   N80       1.0  0.37423  0.15160  0.10793  1.0000
  H   H145      1.0  0.37428  0.18311  0.10912  1.0000
  H   H146      1.0  0.37428  0.18302  0.89432  1.0000
  H   H147      1.0  0.37423  0.15175  0.76923  1.0000
  H   H148      1.0  0.37414  0.09810  0.76915  1.0000
  H   H149      1.0  0.37409  0.06692  0.10866  1.0000
  H   H150      1.0  0.37409  0.06689  0.89407  1.0000
  H   H151      1.0  0.37423  0.15188  0.23401  1.0000
  H   H152      1.0  0.37414  0.09819  0.23374  1.0000
  C   C465      1.0  0.37421  0.14034  0.34096  1.0000
  C   C466      1.0  0.37419  0.13264  0.39399  1.0000
  C   C467      1.0  0.37417  0.11736  0.39392  1.0000
  C   C468      1.0  0.37416  0.10969  0.34082  1.0000
  C   C469      1.0  0.37432  0.20986  0.06294  1.0000
  C   C470      1.0  0.37434  0.22311  0.03216  1.0000
  C   C471      1.0  0.37434  0.22309  0.97102  1.0000
  C   C472      1.0  0.37432  0.20981  0.94036  1.0000
  C   C473      1.0  0.37421  0.14028  0.66223  1.0000
  C   C474      1.0  0.37419  0.13261  0.60918  1.0000
  C   C475      1.0  0.37417  0.11733  0.60920  1.0000
  C   C476      1.0  0.37416  0.10964  0.66223  1.0000
  C   C477      1.0  0.37404  0.04016  0.06280  1.0000
  C   C478      1.0  0.37402  0.02691  0.03220  1.0000
  C   C479      1.0  0.37402  0.02690  0.97112  1.0000
  C   C480      1.0  0.37404  0.04015  0.94034  1.0000
  H   H153      1.0  0.37423  0.15166  0.34111  1.0000
  O   O73       1.0  0.37421  0.14006  0.44577  1.0000
  O   O74       1.0  0.37416  0.10991  0.44565  1.0000
  H   H154      1.0  0.37414  0.09836  0.34091  1.0000
  H   H155      1.0  0.37432  0.20990  0.10823  1.0000
  O   O75       1.0  0.37436  0.23607  0.06182  1.0000
  O   O76       1.0  0.37436  0.23602  0.94119  1.0000
  H   H156      1.0  0.37432  0.20983  0.89507  1.0000
  H   H157      1.0  0.37423  0.15159  0.66209  1.0000
  O   O77       1.0  0.37421  0.14005  0.55742  1.0000
  O   O78       1.0  0.37416  0.10993  0.55745  1.0000
  H   H158      1.0  0.37414  0.09833  0.66211  1.0000
  H   H159      1.0  0.37404  0.04013  0.10800  1.0000
  O   O79       1.0  0.37400  0.01397  0.06195  1.0000
  O   O80       1.0  0.37400  0.01396  0.94150  1.0000
  H   H160      1.0  0.37404  0.04011  0.89509  1.0000
  Ni  Ni10      1.0  0.37418  0.12498  0.00153  1.0000
  C   C481      1.0  0.89058  0.37414  0.23494  1.0000
  C   C482      1.0  0.88278  0.37416  0.28807  1.0000
  C   C483      1.0  0.86732  0.37418  0.28797  1.0000
  C   C484      1.0  0.85953  0.37420  0.23476  1.0000
  C   C485      1.0  0.86761  0.37418  0.18312  1.0000
  C   C486      1.0  0.88252  0.37416  0.18320  1.0000
  C   C487      1.0  0.88720  0.37415  0.12512  1.0000
  N   N81       1.0  0.87504  0.37417  0.08847  1.0000
  C   C488      1.0  0.86290  0.37419  0.12498  1.0000
  N   N82       1.0  0.84846  0.37421  0.10792  1.0000
  C   C489      1.0  0.84420  0.37422  0.05023  1.0000
  N   N83       1.0  0.85333  0.37421  0.00168  1.0000
  C   C490      1.0  0.84418  0.37422  0.95309  1.0000
  C   C491      1.0  0.82967  0.37424  0.97185  1.0000
  C   C492      1.0  0.82967  0.37424  0.03142  1.0000
  N   N84       1.0  0.87494  0.37417  0.91521  1.0000
  C   C493      1.0  0.86279  0.37419  0.87866  1.0000
  N   N85       1.0  0.84840  0.37421  0.89550  1.0000
  C   C494      1.0  0.86748  0.37418  0.82056  1.0000
  C   C495      1.0  0.88237  0.37416  0.82059  1.0000
  C   C496      1.0  0.88707  0.37415  0.87870  1.0000
  C   C497      1.0  0.81675  0.37427  0.06371  1.0000
  C   C498      1.0  0.80346  0.37429  0.03267  1.0000
  C   C499      1.0  0.80346  0.37429  0.97089  1.0000
  C   C500      1.0  0.81674  0.37427  0.93965  1.0000
  C   C501      1.0  0.89045  0.37414  0.76892  1.0000
  C   C502      1.0  0.88268  0.37416  0.71573  1.0000
  C   C503      1.0  0.86723  0.37418  0.71574  1.0000
  C   C504      1.0  0.85943  0.37420  0.76886  1.0000
  N   N86       1.0  0.89665  0.37413  0.00203  1.0000
  C   C505      1.0  0.90577  0.37412  0.95348  1.0000
  N   N87       1.0  0.90149  0.37413  0.89574  1.0000
  C   C506      1.0  0.92031  0.37410  0.97226  1.0000
  C   C507      1.0  0.92032  0.37410  0.03188  1.0000
  C   C508      1.0  0.90580  0.37412  0.05064  1.0000
  C   C509      1.0  0.93326  0.37407  0.06411  1.0000
  C   C510      1.0  0.94655  0.37405  0.03289  1.0000
  C   C511      1.0  0.94652  0.37405  0.97106  1.0000
  C   C512      1.0  0.93321  0.37407  0.93994  1.0000
  N   N88       1.0  0.90160  0.37413  0.10831  1.0000
  H   H161      1.0  0.90190  0.37413  0.23436  1.0000
  H   H162      1.0  0.84820  0.37421  0.23407  1.0000
  H   H163      1.0  0.81692  0.37426  0.10899  1.0000
  H   H164      1.0  0.81689  0.37426  0.89439  1.0000
  H   H165      1.0  0.90176  0.37413  0.76956  1.0000
  H   H166      1.0  0.84811  0.37421  0.76950  1.0000
  H   H167      1.0  0.93312  0.37407  0.10939  1.0000
  H   H168      1.0  0.93304  0.37407  0.89463  1.0000
  C   C513      1.0  0.95985  0.37403  0.06322  1.0000
  C   C514      1.0  0.97311  0.37401  0.03241  1.0000
  C   C515      1.0  0.97309  0.37401  0.97126  1.0000
  C   C516      1.0  0.95981  0.37403  0.94061  1.0000
  C   C517      1.0  0.89036  0.37414  0.34136  1.0000
  C   C518      1.0  0.88267  0.37416  0.39439  1.0000
  C   C519      1.0  0.86739  0.37418  0.39430  1.0000
  C   C520      1.0  0.85972  0.37419  0.34119  1.0000
  C   C521      1.0  0.79017  0.37431  0.06313  1.0000
  C   C522      1.0  0.77690  0.37433  0.03247  1.0000
  C   C523      1.0  0.77690  0.37433  0.97134  1.0000
  C   C524      1.0  0.79016  0.37431  0.94059  1.0000
  C   C525      1.0  0.89029  0.37414  0.66253  1.0000
  C   C526      1.0  0.88263  0.37416  0.60953  1.0000
  C   C527      1.0  0.86736  0.37418  0.60950  1.0000
  C   C528      1.0  0.85967  0.37419  0.66253  1.0000
  H   H169      1.0  0.95989  0.37403  0.10849  1.0000
  O   O81       1.0  0.98606  0.37399  0.06208  1.0000
  O   O82       1.0  0.98602  0.37399  0.94145  1.0000
  H   H170      1.0  0.95983  0.37403  0.89528  1.0000
  H   H171      1.0  0.90168  0.37413  0.34151  1.0000
  O   O83       1.0  0.89009  0.37415  0.44620  1.0000
  O   O84       1.0  0.85993  0.37419  0.44605  1.0000
  H   H172      1.0  0.84839  0.37421  0.34129  1.0000
  H   H173      1.0  0.79013  0.37431  0.10837  1.0000
  O   O85       1.0  0.76396  0.37435  0.06225  1.0000
  O   O86       1.0  0.76396  0.37435  0.94175  1.0000
  H   H174      1.0  0.79013  0.37431  0.89534  1.0000
  H   H175      1.0  0.90159  0.37413  0.66241  1.0000
  O   O87       1.0  0.89007  0.37415  0.55776  1.0000
  O   O88       1.0  0.85996  0.37419  0.55776  1.0000
  H   H176      1.0  0.84836  0.37421  0.66239  1.0000
  Ni  Ni11      1.0  0.87499  0.37417  0.00185  1.0000
  C   C529      1.0  0.62572  0.81675  0.94025  1.0000
  C   C530      1.0  0.62570  0.80347  0.97148  1.0000
  C   C531      1.0  0.62570  0.80350  0.03332  1.0000
  C   C532      1.0  0.62572  0.81680  0.06448  1.0000
  C   C533      1.0  0.62574  0.82971  0.03215  1.0000
  C   C534      1.0  0.62574  0.82968  0.97251  1.0000
  C   C535      1.0  0.62577  0.84420  0.95378  1.0000
  N   N89       1.0  0.62578  0.85337  0.00240  1.0000
  C   C536      1.0  0.62577  0.84424  0.05096  1.0000
  N   N90       1.0  0.62577  0.84851  0.10873  1.0000
  C   C537      1.0  0.62580  0.86293  0.12574  1.0000
  N   N91       1.0  0.62582  0.87507  0.08922  1.0000
  C   C538      1.0  0.62584  0.88722  0.12578  1.0000
  C   C539      1.0  0.62583  0.88253  0.18385  1.0000
  C   C540      1.0  0.62581  0.86764  0.18388  1.0000
  N   N92       1.0  0.62585  0.89668  0.00278  1.0000
  C   C541      1.0  0.62587  0.90582  0.05133  1.0000
  N   N93       1.0  0.62586  0.90161  0.10891  1.0000
  C   C542      1.0  0.62589  0.92034  0.03258  1.0000
  C   C543      1.0  0.62589  0.92033  0.97300  1.0000
  C   C544      1.0  0.62587  0.90580  0.95422  1.0000
  C   C545      1.0  0.62579  0.85957  0.23554  1.0000
  C   C546      1.0  0.62580  0.86733  0.28868  1.0000
  C   C547      1.0  0.62583  0.88278  0.28870  1.0000
  C   C548      1.0  0.62584  0.89058  0.23557  1.0000
  C   C549      1.0  0.62591  0.93325  0.94070  1.0000
  C   C550      1.0  0.62593  0.94654  0.97177  1.0000
  C   C551      1.0  0.62593  0.94655  0.03355  1.0000
  C   C552      1.0  0.62591  0.93327  0.06478  1.0000
  N   N94       1.0  0.62582  0.87497  0.91593  1.0000
  C   C553      1.0  0.62584  0.88710  0.87947  1.0000
  N   N95       1.0  0.62586  0.90154  0.89654  1.0000
  C   C554      1.0  0.62583  0.88241  0.82130  1.0000
  C   C555      1.0  0.62581  0.86750  0.82127  1.0000
  C   C556      1.0  0.62580  0.86282  0.87933  1.0000
  C   C557      1.0  0.62579  0.85944  0.76952  1.0000
  C   C558      1.0  0.62580  0.86724  0.71636  1.0000
  C   C559      1.0  0.62583  0.88270  0.71644  1.0000
  C   C560      1.0  0.62584  0.89048  0.76967  1.0000
  N   N96       1.0  0.62577  0.84840  0.89618  1.0000
  H   H177      1.0  0.62572  0.81689  0.89498  1.0000
  H   H178      1.0  0.62572  0.81697  0.10979  1.0000
  H   H179      1.0  0.62577  0.84825  0.23488  1.0000
  H   H180      1.0  0.62586  0.90190  0.23496  1.0000
  H   H181      1.0  0.62591  0.93308  0.89545  1.0000
  H   H182      1.0  0.62591  0.93311  0.11004  1.0000
  H   H183      1.0  0.62577  0.84812  0.77010  1.0000
  H   H184      1.0  0.62586  0.90181  0.77037  1.0000
  C   C561      1.0  0.62579  0.85966  0.66315  1.0000
  C   C562      1.0  0.62581  0.86736  0.61012  1.0000
  C   C563      1.0  0.62583  0.88264  0.61019  1.0000
  C   C564      1.0  0.62584  0.89031  0.66329  1.0000
  C   C565      1.0  0.62568  0.79014  0.94116  1.0000
  C   C566      1.0  0.62566  0.77689  0.97194  1.0000
  C   C567      1.0  0.62566  0.77691  0.03308  1.0000
  C   C568      1.0  0.62568  0.79019  0.06375  1.0000
  C   C569      1.0  0.62579  0.85972  0.34188  1.0000
  C   C570      1.0  0.62581  0.86739  0.39493  1.0000
  C   C571      1.0  0.62583  0.88267  0.39491  1.0000
  C   C572      1.0  0.62584  0.89035  0.34188  1.0000
  C   C573      1.0  0.62596  0.95984  0.94131  1.0000
  C   C574      1.0  0.62598  0.97309  0.97191  1.0000
  C   C575      1.0  0.62598  0.97310  0.03299  1.0000
  C   C576      1.0  0.62596  0.95985  0.06377  1.0000
  H   H185      1.0  0.62577  0.84834  0.66300  1.0000
  O   O89       1.0  0.62579  0.85994  0.55834  1.0000
  O   O90       1.0  0.62584  0.89009  0.55846  1.0000
  H   H186      1.0  0.62586  0.90164  0.66320  1.0000
  H   H187      1.0  0.62568  0.79010  0.89588  1.0000
  O   O91       1.0  0.62564  0.76393  0.94228  1.0000
  O   O92       1.0  0.62564  0.76398  0.06291  1.0000
  H   H188      1.0  0.62568  0.79017  0.10903  1.0000
  H   H189      1.0  0.62577  0.84841  0.34202  1.0000
  O   O93       1.0  0.62579  0.85995  0.44669  1.0000
  O   O94       1.0  0.62584  0.89007  0.44666  1.0000
  H   H190      1.0  0.62586  0.90167  0.34200  1.0000
  H   H191      1.0  0.62596  0.95987  0.89612  1.0000
  O   O95       1.0  0.62600  0.98603  0.94217  1.0000
  O   O96       1.0  0.62600  0.98604  0.06262  1.0000
  H   H192      1.0  0.62596  0.95988  0.10903  1.0000
  Ni  Ni12      1.0  0.62582  0.87502  0.00258  1.0000
  Cu  Cu1       1.0  0.00010  0.37399  0.00175  1.0000
  Cu  Cu2       1.0  0.62600  0.99990  0.00238  1.0000
  Cu  Cu3       1.0  0.99990  0.62601  0.00239  1.0000
  Cu  Cu4       1.0  0.37400  0.00010  0.00174  1.0000
  Zn  Zn1       1.0  0.25000  0.37453  0.00139  1.0000
  Zn  Zn2       1.0  0.62546  0.25000  0.00206  1.0000
  Zn  Zn3       1.0  0.75000  0.62547  0.00270  1.0000
  Zn  Zn4       1.0  0.37454  0.75000  0.00207  1.0000
  Zn  Zn5       1.0  0.25000  0.62547  0.00205  1.0000
  Zn  Zn6       1.0  0.37454  0.25000  0.00140  1.0000
  Zn  Zn7       1.0  0.75000  0.37453  0.00207  1.0000
  Zn  Zn8       1.0  0.62546  0.75000  0.00270  1.0000
  Cu  Cu5       1.0  0.12499  0.37417  0.50156  1.0000
  Cu  Cu6       1.0  0.62582  0.12498  0.50223  1.0000
  Cu  Cu7       1.0  0.87501  0.62583  0.50256  1.0000
  Cu  Cu8       1.0  0.37418  0.87502  0.50191  1.0000
  Cu  Cu9       1.0  0.12499  0.62583  0.50221  1.0000
  Cu  Cu10      1.0  0.37418  0.12499  0.50157  1.0000
  Cu  Cu11      1.0  0.87501  0.37417  0.50193  1.0000
  Cu  Cu12      1.0  0.62582  0.87501  0.50254  1.0000
  Cu  Cu13      1.0  0.37526  0.50000  0.00171  1.0000
  Cu  Cu14      1.0  0.50000  0.37525  0.00171  1.0000
  Cu  Cu15      1.0  0.62474  0.50000  0.00237  1.0000
  Cu  Cu16      1.0  0.50000  0.62475  0.00237  1.0000
