data_image0
_chemical_formula_structural       C7NCNCNC3NCNC11NCNC7NHO2H2O2H2O2H2O2HNiC7NCNCNC3NCNC11NCNC7NHO2H2O2H2O2H2O2HNiC7NCNCNC3NCNC11NCNC7NHO2H2O2H2O2H2O2HNiC7NCNCNC3NCNC11NCNC7NHO2H2O2H2O2H2O2HNiC7NCNCNC3NCNC11NCNC7NHO2H2O2H2O2H2O2HNiC7NCNCNC3NCNC11NCNC7NHO2H2O2H2O2H2O2HNiC7NCNCNC3NCNC11NCNC7NHO2H2O2H2O2H2O2HNiC7NCNCNC3NCNC11NCNC7NHO2H2O2H2O2H2O2HNiC7NCNCNC3NCNC11NCNC7NHO2H2O2H2O2H2O2HNiC7NCNCNC3NCNC11NCNC7NHO2H2O2H2O2H2O2HNiC7NCNCNC3NCNC11NCNC7NHO2H2O2H2O2H2O2HNiC7NCNCNC3NCNC11NCNC7NHO2H2O2H2O2H2O2HNiC7NCNCNC3NCNC11NCNC7NHO2H2O2H2O2H2O2HNiC7NCNCNC3NCNC11NCNC7NHO2H2O2H2O2H2O2HNiC7NCNCNC3NCNC11NCNC7NHO2H2O2H2O2H2O2HNiC7NCNCNC3NCNC11NCNC7NHO2H2O2H2O2H2O2HNiC7NCNCNC3NCNC11NCNC7NHO2H2O2H2O2H2O2HNiC7NCNCNC3NCNC11NCNC7NHO2H2O2H2O2H2O2HNiC7NCNCNC3NCNC11NCNC7NHO2H2O2H2O2H2O2HNiC7NCNCNC3NCNC11NCNC7NHO2H2O2H2O2H2O2HNiC7NCNCNC3NCNC11NCNC7NHO2H2O2H2O2H2O2HNiC7NCNCNC3NCNC11NCNC7NHO2H2O2H2O2H2O2HNiC7NCNCNC3NCNC11NCNC7NHO2H2O2H2O2H2O2HNiC7NCNCNC3NCNC11NCNC7NHO2H2O2H2O2H2O2HNiC7NCNCNC3NCNC11NCNC7NHO2H2O2H2O2H2O2HNiC7NCNCNC3NCNC11NCNC7NHO2H2O2H2O2H2O2HNiC7NCNCNC3NCNC11NCNC7NHO2H2O2H2O2H2O2HNiC7NCNCNC3NCNC11NCNC7NHO2H2O2H2O2H2O2HNiC7NCNCNC3NCNC11NCNC7NHO2H2O2H2O2H2O2HNiC7NCNCNC3NCNC11NCNC7NHO2H2O2H2O2H2O2HNiC7NCNCNC3NCNC11NCNC7NHO2H2O2H2O2H2O2HNiC7NCNCNC3NCNC11NCNC7NHO2H2O2H2O2H2O2HNiC7NCNCNC3NCNC11NCNC7NHO2H2O2H2O2H2O2HNiC7NCNCNC3NCNC11NCNC7NHO2H2O2H2O2H2O2HNiC7NCNCNC3NCNC11NCNC7NHO2H2O2H2O2H2O2HNiC7NCNCNC3NCNC11NCNC7NHO2H2O2H2O2H2O2HNiC7NCNCNC3NCNC11NCNC7NHO2H2O2H2O2H2O2HNiC7NCNCNC3NCNC11NCNC7NHO2H2O2H2O2H2O2HNiC7NCNCNC3NCNC11NCNC7NHO2H2O2H2O2H2O2HNiC7NCNCNC3NCNC11NCNC7NHO2H2O2H2O2H2O2HNiC7NCNCNC3NCNC11NCNC7NHO2H2O2H2O2H2O2HNiC7NCNCNC3NCNC11NCNC7NHO2H2O2H2O2H2O2HNiC7NCNCNC3NCNC11NCNC7NHO2H2O2H2O2H2O2HNiC7NCNCNC3NCNC11NCNC7NHO2H2O2H2O2H2O2HNiC7NCNCNC3NCNC11NCNC7NHO2H2O2H2O2H2O2HNiC7NCNCNC3NCNC11NCNC7NHO2H2O2H2O2H2O2HNiC7NCNCNC3NCNC11NCNC7NHO2H2O2H2O2H2O2HNiC7NCNCNC3NCNC11NCNC7NHO2H2O2H2O2H2O2HNiCu48Zn48
_chemical_formula_sum              "C1536 N384 H384 O384 Ni48 Cu48 Zn48"
_cell_length_a       76.9588
_cell_length_b       76.9592
_cell_length_c       76.9593
_cell_angle_alpha    89.9953
_cell_angle_beta     89.9955
_cell_angle_gamma    90.007

_space_group_name_H-M_alt    "P 1"
_space_group_IT_number       1

loop_
  _space_group_symop_operation_xyz
  'x, y, z'

loop_
  _atom_site_type_symbol
  _atom_site_label
  _atom_site_symmetry_multiplicity
  _atom_site_fract_x
  _atom_site_fract_y
  _atom_site_fract_z
  _atom_site_occupancy
  C   C1        1.0  0.10474  0.05020  0.37518  1.0000
  C   C2        1.0  0.11490  0.03283  0.37513  1.0000
  C   C3        1.0  0.13512  0.03283  0.37507  1.0000
  C   C4        1.0  0.14528  0.05020  0.37505  1.0000
  C   C5        1.0  0.13468  0.06704  0.37509  1.0000
  C   C6        1.0  0.11535  0.06704  0.37516  1.0000
  C   C7        1.0  0.10931  0.08597  0.37519  1.0000
  N   N1        1.0  0.12502  0.09821  0.37513  1.0000
  C   C8        1.0  0.14073  0.08597  0.37507  1.0000
  N   N2        1.0  0.15926  0.09075  0.37499  1.0000
  C   C9        1.0  0.16405  0.10928  0.37500  1.0000
  N   N3        1.0  0.15180  0.12499  0.37506  1.0000
  C   C10       1.0  0.16405  0.14071  0.37509  1.0000
  C   C11       1.0  0.18297  0.13467  0.37504  1.0000
  C   C12       1.0  0.18298  0.11533  0.37499  1.0000
  N   N4        1.0  0.12502  0.15177  0.37510  1.0000
  C   C13       1.0  0.14074  0.16402  0.37516  1.0000
  N   N5        1.0  0.15927  0.15924  0.37518  1.0000
  C   C14       1.0  0.13469  0.18295  0.37513  1.0000
  C   C15       1.0  0.11536  0.18294  0.37505  1.0000
  C   C16       1.0  0.10931  0.16401  0.37503  1.0000
  C   C17       1.0  0.19982  0.10474  0.37496  1.0000
  C   C18       1.0  0.21718  0.11491  0.37496  1.0000
  C   C19       1.0  0.21717  0.13513  0.37498  1.0000
  C   C20       1.0  0.19981  0.14528  0.37503  1.0000
  C   C21       1.0  0.10476  0.19978  0.37502  1.0000
  C   C22       1.0  0.11491  0.21714  0.37508  1.0000
  C   C23       1.0  0.13513  0.21715  0.37514  1.0000
  C   C24       1.0  0.14529  0.19979  0.37516  1.0000
  N   N6        1.0  0.09824  0.12499  0.37508  1.0000
  C   C25       1.0  0.08600  0.14070  0.37500  1.0000
  N   N7        1.0  0.09078  0.15923  0.37494  1.0000
  C   C26       1.0  0.06707  0.13466  0.37500  1.0000
  C   C27       1.0  0.06707  0.11532  0.37508  1.0000
  C   C28       1.0  0.08600  0.10928  0.37514  1.0000
  C   C29       1.0  0.05022  0.10473  0.37508  1.0000
  C   C30       1.0  0.03286  0.11489  0.37500  1.0000
  C   C31       1.0  0.03287  0.13511  0.37495  1.0000
  C   C32       1.0  0.05024  0.14527  0.37495  1.0000
  N   N8        1.0  0.09078  0.09075  0.37523  1.0000
  H   H1        1.0  0.09110  0.05042  0.37522  1.0000
  O   O1        1.0  0.10649  0.01818  0.37514  1.0000
  O   O2        1.0  0.14351  0.01818  0.37505  1.0000
  H   H2        1.0  0.15892  0.05042  0.37500  1.0000
  H   H3        1.0  0.19961  0.09110  0.37494  1.0000
  O   O3        1.0  0.23184  0.10651  0.37496  1.0000
  O   O4        1.0  0.23182  0.14354  0.37495  1.0000
  H   H4        1.0  0.19958  0.15892  0.37505  1.0000
  H   H5        1.0  0.09112  0.19956  0.37498  1.0000
  O   O5        1.0  0.10651  0.23180  0.37509  1.0000
  O   O6        1.0  0.14353  0.23180  0.37518  1.0000
  H   H6        1.0  0.15893  0.19957  0.37520  1.0000
  H   H7        1.0  0.05044  0.09109  0.37512  1.0000
  O   O7        1.0  0.01821  0.10649  0.37497  1.0000
  O   O8        1.0  0.01822  0.14352  0.37491  1.0000
  H   H8        1.0  0.05047  0.15891  0.37490  1.0000
  Ni  Ni1       1.0  0.12502  0.12499  0.37512  1.0000
  C   C33       1.0  0.85474  0.05018  0.37511  1.0000
  C   C34       1.0  0.86490  0.03282  0.37506  1.0000
  C   C35       1.0  0.88512  0.03282  0.37500  1.0000
  C   C36       1.0  0.89528  0.05018  0.37498  1.0000
  C   C37       1.0  0.88468  0.06702  0.37502  1.0000
  C   C38       1.0  0.86535  0.06702  0.37509  1.0000
  C   C39       1.0  0.85931  0.08595  0.37512  1.0000
  N   N9        1.0  0.87502  0.09819  0.37506  1.0000
  C   C40       1.0  0.89073  0.08595  0.37500  1.0000
  N   N10       1.0  0.90926  0.09074  0.37492  1.0000
  C   C41       1.0  0.91404  0.10927  0.37493  1.0000
  N   N11       1.0  0.90180  0.12498  0.37500  1.0000
  C   C42       1.0  0.91404  0.14069  0.37503  1.0000
  C   C43       1.0  0.93297  0.13466  0.37497  1.0000
  C   C44       1.0  0.93297  0.11532  0.37492  1.0000
  N   N12       1.0  0.87502  0.15176  0.37504  1.0000
  C   C45       1.0  0.89073  0.16400  0.37509  1.0000
  N   N13       1.0  0.90926  0.15923  0.37512  1.0000
  C   C46       1.0  0.88468  0.18293  0.37506  1.0000
  C   C47       1.0  0.86535  0.18293  0.37498  1.0000
  C   C48       1.0  0.85931  0.16400  0.37496  1.0000
  C   C49       1.0  0.94982  0.10473  0.37489  1.0000
  C   C50       1.0  0.96718  0.11490  0.37490  1.0000
  C   C51       1.0  0.96717  0.13512  0.37491  1.0000
  C   C52       1.0  0.94980  0.14527  0.37497  1.0000
  C   C53       1.0  0.85475  0.19977  0.37496  1.0000
  C   C54       1.0  0.86490  0.21713  0.37501  1.0000
  C   C55       1.0  0.88512  0.21713  0.37508  1.0000
  C   C56       1.0  0.89528  0.19978  0.37510  1.0000
  N   N14       1.0  0.84824  0.12497  0.37501  1.0000
  C   C57       1.0  0.83600  0.14068  0.37493  1.0000
  N   N15       1.0  0.84078  0.15921  0.37487  1.0000
  C   C58       1.0  0.81707  0.13464  0.37493  1.0000
  C   C59       1.0  0.81707  0.11530  0.37501  1.0000
  C   C60       1.0  0.83599  0.10926  0.37507  1.0000
  C   C61       1.0  0.80022  0.10471  0.37501  1.0000
  C   C62       1.0  0.78286  0.11487  0.37493  1.0000
  C   C63       1.0  0.78287  0.13509  0.37488  1.0000
  C   C64       1.0  0.80023  0.14525  0.37488  1.0000
  N   N16       1.0  0.84078  0.09073  0.37516  1.0000
  H   H9        1.0  0.84110  0.05040  0.37515  1.0000
  O   O9        1.0  0.85649  0.01817  0.37507  1.0000
  O   O10       1.0  0.89352  0.01816  0.37498  1.0000
  H   H10       1.0  0.90892  0.05041  0.37493  1.0000
  H   H11       1.0  0.94961  0.09109  0.37487  1.0000
  O   O11       1.0  0.98184  0.10651  0.37489  1.0000
  O   O12       1.0  0.98182  0.14353  0.37489  1.0000
  H   H12       1.0  0.94957  0.15891  0.37499  1.0000
  H   H13       1.0  0.84111  0.19954  0.37491  1.0000
  O   O13       1.0  0.85650  0.23178  0.37502  1.0000
  O   O14       1.0  0.89352  0.23179  0.37512  1.0000
  H   H14       1.0  0.90892  0.19956  0.37513  1.0000
  H   H15       1.0  0.80044  0.09107  0.37505  1.0000
  O   O15       1.0  0.76821  0.10647  0.37490  1.0000
  O   O16       1.0  0.76822  0.14350  0.37484  1.0000
  H   H16       1.0  0.80046  0.15889  0.37483  1.0000
  Ni  Ni2       1.0  0.87502  0.12497  0.37506  1.0000
  C   C65       1.0  0.85472  0.80018  0.37510  1.0000
  C   C66       1.0  0.86488  0.78282  0.37506  1.0000
  C   C67       1.0  0.88510  0.78282  0.37500  1.0000
  C   C68       1.0  0.89526  0.80018  0.37496  1.0000
  C   C69       1.0  0.88467  0.81702  0.37500  1.0000
  C   C70       1.0  0.86533  0.81702  0.37508  1.0000
  C   C71       1.0  0.85929  0.83595  0.37510  1.0000
  N   N17       1.0  0.87500  0.84819  0.37504  1.0000
  C   C72       1.0  0.89071  0.83595  0.37497  1.0000
  N   N18       1.0  0.90925  0.84073  0.37489  1.0000
  C   C73       1.0  0.91403  0.85926  0.37490  1.0000
  N   N19       1.0  0.90179  0.87498  0.37496  1.0000
  C   C74       1.0  0.91403  0.89069  0.37498  1.0000
  C   C75       1.0  0.93296  0.88465  0.37492  1.0000
  C   C76       1.0  0.93296  0.86531  0.37488  1.0000
  N   N20       1.0  0.87501  0.90176  0.37500  1.0000
  C   C77       1.0  0.89072  0.91400  0.37504  1.0000
  N   N21       1.0  0.90925  0.90922  0.37507  1.0000
  C   C78       1.0  0.88468  0.93293  0.37501  1.0000
  C   C79       1.0  0.86534  0.93293  0.37494  1.0000
  C   C80       1.0  0.85930  0.91400  0.37492  1.0000
  C   C81       1.0  0.94981  0.85472  0.37485  1.0000
  C   C82       1.0  0.96717  0.86489  0.37485  1.0000
  C   C83       1.0  0.96716  0.88511  0.37486  1.0000
  C   C84       1.0  0.94979  0.89526  0.37491  1.0000
  C   C85       1.0  0.85474  0.94977  0.37491  1.0000
  C   C86       1.0  0.86490  0.96713  0.37496  1.0000
  C   C87       1.0  0.88512  0.96713  0.37502  1.0000
  C   C88       1.0  0.89528  0.94977  0.37504  1.0000
  N   N22       1.0  0.84823  0.87497  0.37498  1.0000
  C   C89       1.0  0.83599  0.89069  0.37490  1.0000
  N   N23       1.0  0.84077  0.90922  0.37484  1.0000
  C   C90       1.0  0.81706  0.88465  0.37491  1.0000
  C   C91       1.0  0.81705  0.86531  0.37500  1.0000
  C   C92       1.0  0.83598  0.85926  0.37505  1.0000
  C   C93       1.0  0.80021  0.85472  0.37500  1.0000
  C   C94       1.0  0.78285  0.86488  0.37492  1.0000
  C   C95       1.0  0.78286  0.88510  0.37486  1.0000
  C   C96       1.0  0.80022  0.89525  0.37486  1.0000
  N   N24       1.0  0.84076  0.84073  0.37514  1.0000
  H   H17       1.0  0.84108  0.80041  0.37514  1.0000
  O   O17       1.0  0.85647  0.76817  0.37508  1.0000
  O   O18       1.0  0.89350  0.76816  0.37497  1.0000
  H   H18       1.0  0.90890  0.80040  0.37491  1.0000
  H   H19       1.0  0.94959  0.84108  0.37483  1.0000
  O   O19       1.0  0.98182  0.85650  0.37484  1.0000
  O   O20       1.0  0.98181  0.89352  0.37483  1.0000
  H   H20       1.0  0.94957  0.90890  0.37493  1.0000
  H   H21       1.0  0.84110  0.94954  0.37486  1.0000
  O   O21       1.0  0.85650  0.98178  0.37496  1.0000
  O   O22       1.0  0.89352  0.98178  0.37505  1.0000
  H   H22       1.0  0.90892  0.94955  0.37507  1.0000
  H   H23       1.0  0.80042  0.84107  0.37504  1.0000
  O   O23       1.0  0.76819  0.85648  0.37489  1.0000
  O   O24       1.0  0.76821  0.89351  0.37482  1.0000
  H   H24       1.0  0.80045  0.90889  0.37481  1.0000
  Ni  Ni3       1.0  0.87501  0.87497  0.37502  1.0000
  C   C97       1.0  0.10472  0.80019  0.37509  1.0000
  C   C98       1.0  0.11487  0.78283  0.37505  1.0000
  C   C99       1.0  0.13509  0.78283  0.37499  1.0000
  C   C100      1.0  0.14526  0.80019  0.37496  1.0000
  C   C101      1.0  0.13466  0.81703  0.37500  1.0000
  C   C102      1.0  0.11532  0.81703  0.37507  1.0000
  C   C103      1.0  0.10929  0.83596  0.37510  1.0000
  N   N25       1.0  0.12500  0.84820  0.37504  1.0000
  C   C104      1.0  0.14071  0.83596  0.37498  1.0000
  N   N26       1.0  0.15924  0.84074  0.37490  1.0000
  C   C105      1.0  0.16403  0.85927  0.37491  1.0000
  N   N27       1.0  0.15179  0.87498  0.37497  1.0000
  C   C106      1.0  0.16403  0.89070  0.37500  1.0000
  C   C107      1.0  0.18296  0.88466  0.37495  1.0000
  C   C108      1.0  0.18296  0.86532  0.37490  1.0000
  N   N28       1.0  0.12501  0.90176  0.37501  1.0000
  C   C109      1.0  0.14072  0.91401  0.37506  1.0000
  N   N29       1.0  0.15925  0.90923  0.37509  1.0000
  C   C110      1.0  0.13468  0.93294  0.37503  1.0000
  C   C111      1.0  0.11534  0.93294  0.37495  1.0000
  C   C112      1.0  0.10930  0.91401  0.37493  1.0000
  C   C113      1.0  0.19980  0.85473  0.37487  1.0000
  C   C114      1.0  0.21716  0.86490  0.37488  1.0000
  C   C115      1.0  0.21716  0.88511  0.37489  1.0000
  C   C116      1.0  0.19979  0.89526  0.37494  1.0000
  C   C117      1.0  0.10475  0.94978  0.37492  1.0000
  C   C118      1.0  0.11490  0.96714  0.37498  1.0000
  C   C119      1.0  0.13512  0.96714  0.37504  1.0000
  C   C120      1.0  0.14528  0.94978  0.37506  1.0000
  N   N30       1.0  0.09823  0.87498  0.37498  1.0000
  C   C121      1.0  0.08599  0.89070  0.37490  1.0000
  N   N31       1.0  0.09077  0.90923  0.37484  1.0000
  C   C122      1.0  0.06706  0.88466  0.37490  1.0000
  C   C123      1.0  0.06705  0.86532  0.37499  1.0000
  C   C124      1.0  0.08598  0.85928  0.37505  1.0000
  C   C125      1.0  0.05020  0.85473  0.37498  1.0000
  C   C126      1.0  0.03285  0.86489  0.37490  1.0000
  C   C127      1.0  0.03286  0.88511  0.37485  1.0000
  C   C128      1.0  0.05022  0.89527  0.37485  1.0000
  N   N32       1.0  0.09076  0.84074  0.37514  1.0000
  H   H25       1.0  0.09108  0.80042  0.37513  1.0000
  O   O25       1.0  0.10647  0.76818  0.37506  1.0000
  O   O26       1.0  0.14349  0.76817  0.37497  1.0000
  H   H26       1.0  0.15890  0.80041  0.37492  1.0000
  H   H27       1.0  0.19959  0.84109  0.37485  1.0000
  O   O27       1.0  0.23182  0.85650  0.37487  1.0000
  O   O28       1.0  0.23181  0.89352  0.37486  1.0000
  H   H28       1.0  0.19957  0.90890  0.37496  1.0000
  H   H29       1.0  0.09110  0.94955  0.37487  1.0000
  O   O29       1.0  0.10650  0.98179  0.37498  1.0000
  O   O30       1.0  0.14353  0.98179  0.37508  1.0000
  H   H30       1.0  0.15892  0.94956  0.37510  1.0000
  H   H31       1.0  0.05042  0.84109  0.37503  1.0000
  O   O31       1.0  0.01819  0.85650  0.37487  1.0000
  O   O32       1.0  0.01821  0.89352  0.37481  1.0000
  H   H32       1.0  0.05046  0.90891  0.37480  1.0000
  Ni  Ni4       1.0  0.12500  0.87498  0.37503  1.0000
  C   C129      1.0  0.10473  0.80022  0.62511  1.0000
  C   C130      1.0  0.11488  0.78286  0.62507  1.0000
  C   C131      1.0  0.13510  0.78286  0.62501  1.0000
  C   C132      1.0  0.14526  0.80022  0.62498  1.0000
  C   C133      1.0  0.13467  0.81706  0.62502  1.0000
  C   C134      1.0  0.11533  0.81706  0.62509  1.0000
  C   C135      1.0  0.10929  0.83599  0.62511  1.0000
  N   N33       1.0  0.12500  0.84823  0.62505  1.0000
  C   C136      1.0  0.14071  0.83599  0.62500  1.0000
  N   N34       1.0  0.15925  0.84077  0.62492  1.0000
  C   C137      1.0  0.16403  0.85931  0.62493  1.0000
  N   N35       1.0  0.15178  0.87502  0.62499  1.0000
  C   C138      1.0  0.16403  0.89073  0.62502  1.0000
  C   C139      1.0  0.18295  0.88469  0.62496  1.0000
  C   C140      1.0  0.18296  0.86536  0.62492  1.0000
  N   N36       1.0  0.12500  0.90179  0.62502  1.0000
  C   C141      1.0  0.14071  0.91404  0.62507  1.0000
  N   N37       1.0  0.15925  0.90926  0.62510  1.0000
  C   C142      1.0  0.13467  0.93297  0.62504  1.0000
  C   C143      1.0  0.11533  0.93296  0.62496  1.0000
  C   C144      1.0  0.10929  0.91403  0.62494  1.0000
  C   C145      1.0  0.19981  0.85477  0.62489  1.0000
  C   C146      1.0  0.21716  0.86494  0.62490  1.0000
  C   C147      1.0  0.21716  0.88515  0.62491  1.0000
  C   C148      1.0  0.19979  0.89530  0.62496  1.0000
  C   C149      1.0  0.10473  0.94980  0.62493  1.0000
  C   C150      1.0  0.11489  0.96717  0.62498  1.0000
  C   C151      1.0  0.13511  0.96717  0.62505  1.0000
  C   C152      1.0  0.14527  0.94981  0.62507  1.0000
  N   N38       1.0  0.09822  0.87501  0.62500  1.0000
  C   C153      1.0  0.08598  0.89072  0.62491  1.0000
  N   N39       1.0  0.09076  0.90925  0.62485  1.0000
  C   C154      1.0  0.06706  0.88468  0.62491  1.0000
  C   C155      1.0  0.06705  0.86534  0.62500  1.0000
  C   C156      1.0  0.08598  0.85930  0.62506  1.0000
  C   C157      1.0  0.05021  0.85475  0.62500  1.0000
  C   C158      1.0  0.03285  0.86491  0.62491  1.0000
  C   C159      1.0  0.03285  0.88513  0.62486  1.0000
  C   C160      1.0  0.05022  0.89528  0.62486  1.0000
  N   N40       1.0  0.09076  0.84077  0.62515  1.0000
  H   H33       1.0  0.09109  0.80044  0.62515  1.0000
  O   O33       1.0  0.10648  0.76820  0.62508  1.0000
  O   O34       1.0  0.14350  0.76820  0.62499  1.0000
  H   H34       1.0  0.15891  0.80044  0.62494  1.0000
  H   H35       1.0  0.19959  0.84113  0.62487  1.0000
  O   O35       1.0  0.23182  0.85654  0.62489  1.0000
  O   O36       1.0  0.23180  0.89357  0.62488  1.0000
  H   H36       1.0  0.19956  0.90894  0.62498  1.0000
  H   H37       1.0  0.09109  0.94958  0.62488  1.0000
  O   O37       1.0  0.10649  0.98182  0.62499  1.0000
  O   O38       1.0  0.14351  0.98182  0.62509  1.0000
  H   H38       1.0  0.15891  0.94959  0.62511  1.0000
  H   H39       1.0  0.05042  0.84110  0.62504  1.0000
  O   O39       1.0  0.01819  0.85651  0.62488  1.0000
  O   O40       1.0  0.01820  0.89354  0.62481  1.0000
  H   H40       1.0  0.05045  0.90893  0.62481  1.0000
  Ni  Ni5       1.0  0.12500  0.87501  0.62504  1.0000
  C   C161      1.0  0.10474  0.05022  0.62516  1.0000
  C   C162      1.0  0.11489  0.03286  0.62511  1.0000
  C   C163      1.0  0.13511  0.03286  0.62505  1.0000
  C   C164      1.0  0.14527  0.05022  0.62502  1.0000
  C   C165      1.0  0.13468  0.06706  0.62506  1.0000
  C   C166      1.0  0.11534  0.06706  0.62514  1.0000
  C   C167      1.0  0.10930  0.08599  0.62516  1.0000
  N   N41       1.0  0.12501  0.09823  0.62510  1.0000
  C   C168      1.0  0.14072  0.08599  0.62504  1.0000
  N   N42       1.0  0.15925  0.09077  0.62496  1.0000
  C   C169      1.0  0.16404  0.10931  0.62497  1.0000
  N   N43       1.0  0.15179  0.12502  0.62503  1.0000
  C   C170      1.0  0.16403  0.14073  0.62506  1.0000
  C   C171      1.0  0.18296  0.13469  0.62501  1.0000
  C   C172      1.0  0.18297  0.11536  0.62496  1.0000
  N   N44       1.0  0.12501  0.15179  0.62508  1.0000
  C   C173      1.0  0.14072  0.16404  0.62513  1.0000
  N   N45       1.0  0.15925  0.15926  0.62515  1.0000
  C   C174      1.0  0.13468  0.18297  0.62510  1.0000
  C   C175      1.0  0.11534  0.18296  0.62502  1.0000
  C   C176      1.0  0.10930  0.16404  0.62500  1.0000
  C   C177      1.0  0.19981  0.10477  0.62493  1.0000
  C   C178      1.0  0.21717  0.11494  0.62493  1.0000
  C   C179      1.0  0.21716  0.13516  0.62495  1.0000
  C   C180      1.0  0.19980  0.14530  0.62500  1.0000
  C   C181      1.0  0.10474  0.19980  0.62500  1.0000
  C   C182      1.0  0.11490  0.21717  0.62505  1.0000
  C   C183      1.0  0.13511  0.21717  0.62511  1.0000
  C   C184      1.0  0.14527  0.19981  0.62513  1.0000
  N   N46       1.0  0.09823  0.12501  0.62506  1.0000
  C   C185      1.0  0.08599  0.14072  0.62498  1.0000
  N   N47       1.0  0.09077  0.15925  0.62492  1.0000
  C   C186      1.0  0.06706  0.13468  0.62498  1.0000
  C   C187      1.0  0.06706  0.11534  0.62506  1.0000
  C   C188      1.0  0.08599  0.10930  0.62512  1.0000
  C   C189      1.0  0.05021  0.10475  0.62506  1.0000
  C   C190      1.0  0.03286  0.11491  0.62498  1.0000
  C   C191      1.0  0.03286  0.13513  0.62493  1.0000
  C   C192      1.0  0.05023  0.14528  0.62493  1.0000
  N   N48       1.0  0.09077  0.09077  0.62521  1.0000
  H   H41       1.0  0.09110  0.05044  0.62520  1.0000
  O   O41       1.0  0.10649  0.01820  0.62512  1.0000
  O   O42       1.0  0.14351  0.01820  0.62502  1.0000
  H   H42       1.0  0.15892  0.05045  0.62497  1.0000
  H   H43       1.0  0.19960  0.09113  0.62491  1.0000
  O   O43       1.0  0.23183  0.10654  0.62492  1.0000
  O   O44       1.0  0.23181  0.14357  0.62492  1.0000
  H   H44       1.0  0.19957  0.15895  0.62502  1.0000
  H   H45       1.0  0.09110  0.19958  0.62495  1.0000
  O   O45       1.0  0.10649  0.23182  0.62506  1.0000
  O   O46       1.0  0.14352  0.23183  0.62515  1.0000
  H   H46       1.0  0.15892  0.19960  0.62517  1.0000
  H   H47       1.0  0.05043  0.09110  0.62510  1.0000
  O   O47       1.0  0.01820  0.10651  0.62495  1.0000
  O   O48       1.0  0.01821  0.14353  0.62489  1.0000
  H   H48       1.0  0.05046  0.15892  0.62488  1.0000
  Ni  Ni6       1.0  0.12501  0.12501  0.62510  1.0000
  C   C193      1.0  0.85473  0.05020  0.62514  1.0000
  C   C194      1.0  0.86489  0.03284  0.62509  1.0000
  C   C195      1.0  0.88511  0.03284  0.62503  1.0000
  C   C196      1.0  0.89527  0.05020  0.62501  1.0000
  C   C197      1.0  0.88467  0.06704  0.62505  1.0000
  C   C198      1.0  0.86534  0.06704  0.62512  1.0000
  C   C199      1.0  0.85930  0.08597  0.62515  1.0000
  N   N49       1.0  0.87501  0.09821  0.62509  1.0000
  C   C200      1.0  0.89072  0.08597  0.62503  1.0000
  N   N50       1.0  0.90925  0.09075  0.62495  1.0000
  C   C201      1.0  0.91404  0.10928  0.62497  1.0000
  N   N51       1.0  0.90180  0.12499  0.62503  1.0000
  C   C202      1.0  0.91404  0.14071  0.62506  1.0000
  C   C203      1.0  0.93297  0.13467  0.62500  1.0000
  C   C204      1.0  0.93297  0.11533  0.62495  1.0000
  N   N52       1.0  0.87502  0.15177  0.62507  1.0000
  C   C205      1.0  0.89073  0.16402  0.62513  1.0000
  N   N53       1.0  0.90926  0.15924  0.62515  1.0000
  C   C206      1.0  0.88469  0.18295  0.62510  1.0000
  C   C207      1.0  0.86535  0.18295  0.62502  1.0000
  C   C208      1.0  0.85931  0.16402  0.62500  1.0000
  C   C209      1.0  0.94982  0.10474  0.62492  1.0000
  C   C210      1.0  0.96717  0.11491  0.62493  1.0000
  C   C211      1.0  0.96717  0.13513  0.62495  1.0000
  C   C212      1.0  0.94980  0.14528  0.62500  1.0000
  C   C213      1.0  0.85475  0.19979  0.62500  1.0000
  C   C214      1.0  0.86491  0.21715  0.62506  1.0000
  C   C215      1.0  0.88513  0.21715  0.62512  1.0000
  C   C216      1.0  0.89529  0.19979  0.62514  1.0000
  N   N54       1.0  0.84824  0.12499  0.62505  1.0000
  C   C217      1.0  0.83600  0.14071  0.62497  1.0000
  N   N55       1.0  0.84078  0.15924  0.62491  1.0000
  C   C218      1.0  0.81707  0.13467  0.62497  1.0000
  C   C219      1.0  0.81706  0.11533  0.62505  1.0000
  C   C220      1.0  0.83599  0.10928  0.62511  1.0000
  C   C221      1.0  0.80022  0.10474  0.62505  1.0000
  C   C222      1.0  0.78286  0.11490  0.62497  1.0000
  C   C223      1.0  0.78287  0.13512  0.62492  1.0000
  C   C224      1.0  0.80023  0.14527  0.62492  1.0000
  N   N56       1.0  0.84077  0.09075  0.62519  1.0000
  H   H49       1.0  0.84109  0.05043  0.62518  1.0000
  O   O49       1.0  0.85648  0.01819  0.62510  1.0000
  O   O50       1.0  0.89350  0.01818  0.62500  1.0000
  H   H50       1.0  0.90891  0.05042  0.62496  1.0000
  H   H51       1.0  0.94960  0.09110  0.62490  1.0000
  O   O51       1.0  0.98183  0.10651  0.62492  1.0000
  O   O52       1.0  0.98182  0.14354  0.62492  1.0000
  H   H52       1.0  0.94958  0.15892  0.62502  1.0000
  H   H53       1.0  0.84111  0.19956  0.62495  1.0000
  O   O53       1.0  0.85651  0.23180  0.62507  1.0000
  O   O54       1.0  0.89353  0.23180  0.62516  1.0000
  H   H54       1.0  0.90893  0.19957  0.62517  1.0000
  H   H55       1.0  0.80043  0.09109  0.62509  1.0000
  O   O55       1.0  0.76820  0.10650  0.62494  1.0000
  O   O56       1.0  0.76822  0.14353  0.62488  1.0000
  H   H56       1.0  0.80047  0.15891  0.62488  1.0000
  Ni  Ni7       1.0  0.87502  0.12499  0.62509  1.0000
  C   C225      1.0  0.85472  0.80020  0.62506  1.0000
  C   C226      1.0  0.86488  0.78284  0.62502  1.0000
  C   C227      1.0  0.88510  0.78284  0.62496  1.0000
  C   C228      1.0  0.89526  0.80020  0.62493  1.0000
  C   C229      1.0  0.88466  0.81704  0.62496  1.0000
  C   C230      1.0  0.86533  0.81704  0.62504  1.0000
  C   C231      1.0  0.85929  0.83597  0.62506  1.0000
  N   N57       1.0  0.87500  0.84821  0.62500  1.0000
  C   C232      1.0  0.89071  0.83597  0.62494  1.0000
  N   N58       1.0  0.90924  0.84075  0.62486  1.0000
  C   C233      1.0  0.91403  0.85928  0.62487  1.0000
  N   N59       1.0  0.90178  0.87499  0.62493  1.0000
  C   C234      1.0  0.91403  0.89071  0.62495  1.0000
  C   C235      1.0  0.93295  0.88467  0.62490  1.0000
  C   C236      1.0  0.93296  0.86533  0.62485  1.0000
  N   N60       1.0  0.87501  0.90177  0.62497  1.0000
  C   C237      1.0  0.89072  0.91402  0.62502  1.0000
  N   N61       1.0  0.90925  0.90924  0.62504  1.0000
  C   C238      1.0  0.88467  0.93295  0.62498  1.0000
  C   C239      1.0  0.86534  0.93295  0.62491  1.0000
  C   C240      1.0  0.85930  0.91402  0.62489  1.0000
  C   C241      1.0  0.94980  0.85474  0.62482  1.0000
  C   C242      1.0  0.96716  0.86491  0.62482  1.0000
  C   C243      1.0  0.96716  0.88513  0.62483  1.0000
  C   C244      1.0  0.94979  0.89528  0.62489  1.0000
  C   C245      1.0  0.85474  0.94978  0.62488  1.0000
  C   C246      1.0  0.86490  0.96715  0.62493  1.0000
  C   C247      1.0  0.88511  0.96715  0.62499  1.0000
  C   C248      1.0  0.89527  0.94979  0.62501  1.0000
  N   N62       1.0  0.84822  0.87499  0.62495  1.0000
  C   C249      1.0  0.83598  0.89070  0.62487  1.0000
  N   N63       1.0  0.84077  0.90923  0.62481  1.0000
  C   C250      1.0  0.81706  0.88466  0.62488  1.0000
  C   C251      1.0  0.81705  0.86533  0.62496  1.0000
  C   C252      1.0  0.83598  0.85928  0.62502  1.0000
  C   C253      1.0  0.80020  0.85473  0.62496  1.0000
  C   C254      1.0  0.78285  0.86490  0.62488  1.0000
  C   C255      1.0  0.78285  0.88512  0.62483  1.0000
  C   C256      1.0  0.80022  0.89527  0.62482  1.0000
  N   N64       1.0  0.84076  0.84075  0.62511  1.0000
  H   H57       1.0  0.84108  0.80042  0.62511  1.0000
  O   O57       1.0  0.85647  0.76818  0.62504  1.0000
  O   O58       1.0  0.89350  0.76818  0.62493  1.0000
  H   H58       1.0  0.90890  0.80042  0.62488  1.0000
  H   H59       1.0  0.94959  0.84110  0.62480  1.0000
  O   O59       1.0  0.98182  0.85652  0.62481  1.0000
  O   O60       1.0  0.98181  0.89354  0.62480  1.0000
  H   H60       1.0  0.94956  0.90892  0.62490  1.0000
  H   H61       1.0  0.84110  0.94956  0.62483  1.0000
  O   O61       1.0  0.85649  0.98180  0.62494  1.0000
  O   O62       1.0  0.89352  0.98180  0.62503  1.0000
  H   H62       1.0  0.90891  0.94957  0.62505  1.0000
  H   H63       1.0  0.80042  0.84109  0.62501  1.0000
  O   O63       1.0  0.76819  0.85650  0.62486  1.0000
  O   O64       1.0  0.76820  0.89352  0.62479  1.0000
  H   H64       1.0  0.80045  0.90891  0.62478  1.0000
  Ni  Ni8       1.0  0.87500  0.87499  0.62499  1.0000
  C   C257      1.0  0.37482  0.10470  0.19979  1.0000
  C   C258      1.0  0.37486  0.11486  0.21716  1.0000
  C   C259      1.0  0.37492  0.13508  0.21716  1.0000
  C   C260      1.0  0.37495  0.14524  0.19979  1.0000
  C   C261      1.0  0.37491  0.13464  0.18295  1.0000
  C   C262      1.0  0.37484  0.11530  0.18295  1.0000
  C   C263      1.0  0.37481  0.10926  0.16402  1.0000
  N   N65       1.0  0.37487  0.12497  0.15178  1.0000
  C   C264      1.0  0.37493  0.14069  0.16402  1.0000
  N   N66       1.0  0.37501  0.15922  0.15924  1.0000
  C   C265      1.0  0.37500  0.16400  0.14071  1.0000
  N   N67       1.0  0.37494  0.15176  0.12500  1.0000
  C   C266      1.0  0.37491  0.16400  0.10928  1.0000
  C   C267      1.0  0.37496  0.18292  0.11532  1.0000
  C   C268      1.0  0.37501  0.18293  0.13466  1.0000
  N   N68       1.0  0.37490  0.12497  0.09822  1.0000
  C   C269      1.0  0.37485  0.14068  0.08597  1.0000
  N   N69       1.0  0.37482  0.15922  0.09075  1.0000
  C   C270      1.0  0.37488  0.13464  0.06704  1.0000
  C   C271      1.0  0.37496  0.11530  0.06705  1.0000
  C   C272      1.0  0.37498  0.10926  0.08598  1.0000
  C   C273      1.0  0.37504  0.19978  0.14524  1.0000
  C   C274      1.0  0.37504  0.21713  0.13508  1.0000
  C   C275      1.0  0.37502  0.21713  0.11486  1.0000
  C   C276      1.0  0.37497  0.19976  0.10471  1.0000
  C   C277      1.0  0.37499  0.10470  0.05021  1.0000
  C   C278      1.0  0.37493  0.11486  0.03285  1.0000
  C   C279      1.0  0.37487  0.13507  0.03284  1.0000
  C   C280      1.0  0.37484  0.14524  0.05020  1.0000
  N   N70       1.0  0.37492  0.09819  0.12500  1.0000
  C   C281      1.0  0.37501  0.08595  0.10929  1.0000
  N   N71       1.0  0.37506  0.09073  0.09076  1.0000
  C   C282      1.0  0.37500  0.06703  0.11533  1.0000
  C   C283      1.0  0.37492  0.06702  0.13467  1.0000
  C   C284      1.0  0.37486  0.08595  0.14071  1.0000
  C   C285      1.0  0.37492  0.05018  0.14526  1.0000
  C   C286      1.0  0.37500  0.03282  0.13510  1.0000
  C   C287      1.0  0.37506  0.03282  0.11488  1.0000
  C   C288      1.0  0.37506  0.05019  0.10473  1.0000
  N   N72       1.0  0.37477  0.09073  0.15924  1.0000
  H   H65       1.0  0.37478  0.09106  0.19957  1.0000
  O   O65       1.0  0.37485  0.10645  0.23181  1.0000
  O   O66       1.0  0.37495  0.14348  0.23181  1.0000
  H   H66       1.0  0.37500  0.15888  0.19957  1.0000
  H   H67       1.0  0.37506  0.19956  0.15889  1.0000
  O   O67       1.0  0.37504  0.23179  0.14347  1.0000
  O   O68       1.0  0.37505  0.23177  0.10645  1.0000
  H   H68       1.0  0.37495  0.19953  0.09107  1.0000
  H   H69       1.0  0.37503  0.09106  0.05043  1.0000
  O   O69       1.0  0.37492  0.10645  0.01819  1.0000
  O   O70       1.0  0.37483  0.14348  0.01819  1.0000
  H   H70       1.0  0.37481  0.15888  0.05042  1.0000
  H   H71       1.0  0.37488  0.05040  0.15891  1.0000
  O   O71       1.0  0.37504  0.01816  0.14350  1.0000
  O   O72       1.0  0.37510  0.01817  0.10647  1.0000
  H   H72       1.0  0.37510  0.05042  0.09109  1.0000
  Ni  Ni9       1.0  0.37488  0.12497  0.12500  1.0000
  C   C289      1.0  0.85472  0.37521  0.19984  1.0000
  C   C290      1.0  0.86487  0.37516  0.21721  1.0000
  C   C291      1.0  0.88509  0.37510  0.21721  1.0000
  C   C292      1.0  0.89525  0.37507  0.19985  1.0000
  C   C293      1.0  0.88466  0.37511  0.18300  1.0000
  C   C294      1.0  0.86532  0.37519  0.18300  1.0000
  C   C295      1.0  0.85928  0.37521  0.16408  1.0000
  N   N73       1.0  0.87499  0.37515  0.15183  1.0000
  C   C296      1.0  0.89070  0.37509  0.16408  1.0000
  N   N74       1.0  0.90924  0.37500  0.15929  1.0000
  C   C297      1.0  0.91402  0.37502  0.14076  1.0000
  N   N75       1.0  0.90178  0.37508  0.12505  1.0000
  C   C298      1.0  0.91402  0.37510  0.10934  1.0000
  C   C299      1.0  0.93295  0.37505  0.11538  1.0000
  C   C300      1.0  0.93295  0.37500  0.13472  1.0000
  N   N76       1.0  0.87500  0.37512  0.09827  1.0000
  C   C301      1.0  0.89071  0.37517  0.08603  1.0000
  N   N77       1.0  0.90924  0.37519  0.09081  1.0000
  C   C302      1.0  0.88467  0.37513  0.06710  1.0000
  C   C303      1.0  0.86533  0.37506  0.06710  1.0000
  C   C304      1.0  0.85929  0.37504  0.08603  1.0000
  C   C305      1.0  0.94980  0.37497  0.14531  1.0000
  C   C306      1.0  0.96715  0.37497  0.13514  1.0000
  C   C307      1.0  0.96715  0.37499  0.11492  1.0000
  C   C308      1.0  0.94978  0.37504  0.10477  1.0000
  C   C309      1.0  0.85473  0.37503  0.05026  1.0000
  C   C310      1.0  0.86489  0.37508  0.03290  1.0000
  C   C311      1.0  0.88510  0.37514  0.03290  1.0000
  C   C312      1.0  0.89526  0.37517  0.05026  1.0000
  N   N78       1.0  0.84822  0.37510  0.12505  1.0000
  C   C313      1.0  0.83597  0.37502  0.10934  1.0000
  N   N79       1.0  0.84076  0.37495  0.09081  1.0000
  C   C314      1.0  0.81705  0.37502  0.11538  1.0000
  C   C315      1.0  0.81704  0.37511  0.13472  1.0000
  C   C316      1.0  0.83597  0.37516  0.14076  1.0000
  C   C317      1.0  0.80020  0.37510  0.14531  1.0000
  C   C318      1.0  0.78284  0.37502  0.13515  1.0000
  C   C319      1.0  0.78285  0.37497  0.11493  1.0000
  C   C320      1.0  0.80021  0.37497  0.10477  1.0000
  N   N80       1.0  0.84075  0.37525  0.15929  1.0000
  H   H73       1.0  0.84107  0.37525  0.19962  1.0000
  O   O73       1.0  0.85646  0.37518  0.23186  1.0000
  O   O74       1.0  0.89349  0.37508  0.23187  1.0000
  H   H74       1.0  0.90889  0.37502  0.19962  1.0000
  H   H75       1.0  0.94958  0.37495  0.15895  1.0000
  O   O75       1.0  0.98181  0.37497  0.14353  1.0000
  O   O76       1.0  0.98180  0.37496  0.10651  1.0000
  H   H76       1.0  0.94955  0.37506  0.09113  1.0000
  H   H77       1.0  0.84109  0.37498  0.05048  1.0000
  O   O77       1.0  0.85648  0.37509  0.01825  1.0000
  O   O78       1.0  0.89351  0.37518  0.01824  1.0000
  H   H78       1.0  0.90891  0.37520  0.05047  1.0000
  H   H79       1.0  0.80041  0.37515  0.15895  1.0000
  O   O79       1.0  0.76818  0.37500  0.14354  1.0000
  O   O80       1.0  0.76820  0.37493  0.10652  1.0000
  H   H80       1.0  0.80044  0.37492  0.09113  1.0000
  Ni  Ni10      1.0  0.87499  0.37514  0.12505  1.0000
  C   C321      1.0  0.62485  0.85469  0.19980  1.0000
  C   C322      1.0  0.62489  0.86485  0.21717  1.0000
  C   C323      1.0  0.62496  0.88507  0.21717  1.0000
  C   C324      1.0  0.62499  0.89523  0.19981  1.0000
  C   C325      1.0  0.62495  0.88464  0.18297  1.0000
  C   C326      1.0  0.62487  0.86530  0.18296  1.0000
  C   C327      1.0  0.62485  0.85926  0.16404  1.0000
  N   N81       1.0  0.62491  0.87497  0.15180  1.0000
  C   C328      1.0  0.62497  0.89068  0.16404  1.0000
  N   N82       1.0  0.62505  0.90922  0.15926  1.0000
  C   C329      1.0  0.62504  0.91400  0.14073  1.0000
  N   N83       1.0  0.62498  0.90176  0.12501  1.0000
  C   C330      1.0  0.62496  0.91400  0.10930  1.0000
  C   C331      1.0  0.62501  0.93293  0.11534  1.0000
  C   C332      1.0  0.62506  0.93293  0.13468  1.0000
  N   N84       1.0  0.62495  0.87498  0.09823  1.0000
  C   C333      1.0  0.62489  0.89069  0.08599  1.0000
  N   N85       1.0  0.62487  0.90922  0.09077  1.0000
  C   C334      1.0  0.62493  0.88465  0.06706  1.0000
  C   C335      1.0  0.62500  0.86532  0.06706  1.0000
  C   C336      1.0  0.62502  0.85927  0.08599  1.0000
  C   C337      1.0  0.62509  0.94978  0.14527  1.0000
  C   C338      1.0  0.62508  0.96714  0.13510  1.0000
  C   C339      1.0  0.62507  0.96713  0.11489  1.0000
  C   C340      1.0  0.62502  0.94977  0.10474  1.0000
  C   C341      1.0  0.62504  0.85472  0.05022  1.0000
  C   C342      1.0  0.62498  0.86487  0.03286  1.0000
  C   C343      1.0  0.62492  0.88509  0.03286  1.0000
  C   C344      1.0  0.62490  0.89525  0.05022  1.0000
  N   N86       1.0  0.62496  0.84820  0.12501  1.0000
  C   C345      1.0  0.62505  0.83596  0.10930  1.0000
  N   N87       1.0  0.62511  0.84074  0.09077  1.0000
  C   C346      1.0  0.62504  0.81703  0.11534  1.0000
  C   C347      1.0  0.62496  0.81702  0.13467  1.0000
  C   C348      1.0  0.62490  0.83595  0.14072  1.0000
  C   C349      1.0  0.62496  0.80018  0.14527  1.0000
  C   C350      1.0  0.62504  0.78282  0.13510  1.0000
  C   C351      1.0  0.62509  0.78283  0.11488  1.0000
  C   C352      1.0  0.62510  0.80020  0.10473  1.0000
  N   N88       1.0  0.62481  0.84073  0.15925  1.0000
  H   H81       1.0  0.62481  0.84105  0.19958  1.0000
  O   O81       1.0  0.62488  0.85644  0.23182  1.0000
  O   O82       1.0  0.62498  0.89346  0.23183  1.0000
  H   H82       1.0  0.62503  0.90887  0.19959  1.0000
  H   H83       1.0  0.62510  0.94956  0.15891  1.0000
  O   O83       1.0  0.62509  0.98179  0.14350  1.0000
  O   O84       1.0  0.62510  0.98178  0.10648  1.0000
  H   H84       1.0  0.62500  0.94954  0.09109  1.0000
  H   H85       1.0  0.62508  0.84108  0.05044  1.0000
  O   O85       1.0  0.62498  0.85647  0.01821  1.0000
  O   O86       1.0  0.62488  0.89350  0.01820  1.0000
  H   H86       1.0  0.62486  0.90889  0.05044  1.0000
  H   H87       1.0  0.62491  0.80039  0.15891  1.0000
  O   O87       1.0  0.62507  0.76816  0.14350  1.0000
  O   O88       1.0  0.62513  0.76818  0.10647  1.0000
  H   H88       1.0  0.62514  0.80043  0.09109  1.0000
  Ni  Ni11      1.0  0.62492  0.87498  0.12502  1.0000
  C   C353      1.0  0.10473  0.62514  0.19980  1.0000
  C   C354      1.0  0.11488  0.62509  0.21717  1.0000
  C   C355      1.0  0.13510  0.62503  0.21717  1.0000
  C   C356      1.0  0.14527  0.62500  0.19980  1.0000
  C   C357      1.0  0.13467  0.62504  0.18296  1.0000
  C   C358      1.0  0.11533  0.62511  0.18296  1.0000
  C   C359      1.0  0.10929  0.62514  0.16403  1.0000
  N   N89       1.0  0.12501  0.62508  0.15179  1.0000
  C   C360      1.0  0.14072  0.62501  0.16403  1.0000
  N   N90       1.0  0.15925  0.62493  0.15925  1.0000
  C   C361      1.0  0.16403  0.62494  0.14072  1.0000
  N   N91       1.0  0.15179  0.62500  0.12501  1.0000
  C   C362      1.0  0.16403  0.62503  0.10930  1.0000
  C   C363      1.0  0.18296  0.62497  0.11534  1.0000
  C   C364      1.0  0.18296  0.62492  0.13467  1.0000
  N   N92       1.0  0.12501  0.62504  0.09823  1.0000
  C   C365      1.0  0.14072  0.62509  0.08598  1.0000
  N   N93       1.0  0.15925  0.62512  0.09076  1.0000
  C   C366      1.0  0.13468  0.62506  0.06706  1.0000
  C   C367      1.0  0.11534  0.62499  0.06706  1.0000
  C   C368      1.0  0.10930  0.62497  0.08599  1.0000
  C   C369      1.0  0.19981  0.62489  0.14526  1.0000
  C   C370      1.0  0.21717  0.62490  0.13510  1.0000
  C   C371      1.0  0.21716  0.62491  0.11488  1.0000
  C   C372      1.0  0.19980  0.62496  0.10473  1.0000
  C   C373      1.0  0.10474  0.62496  0.05022  1.0000
  C   C374      1.0  0.11490  0.62501  0.03286  1.0000
  C   C375      1.0  0.13512  0.62507  0.03285  1.0000
  C   C376      1.0  0.14528  0.62509  0.05021  1.0000
  N   N94       1.0  0.09823  0.62503  0.12501  1.0000
  C   C377      1.0  0.08599  0.62494  0.10930  1.0000
  N   N95       1.0  0.09077  0.62488  0.09077  1.0000
  C   C378      1.0  0.06706  0.62495  0.11534  1.0000
  C   C379      1.0  0.06706  0.62504  0.13467  1.0000
  C   C380      1.0  0.08598  0.62509  0.14072  1.0000
  C   C381      1.0  0.05021  0.62504  0.14527  1.0000
  C   C382      1.0  0.03285  0.62496  0.13510  1.0000
  C   C383      1.0  0.03286  0.62490  0.11488  1.0000
  C   C384      1.0  0.05023  0.62490  0.10473  1.0000
  N   N96       1.0  0.09076  0.62518  0.15925  1.0000
  H   H89       1.0  0.09109  0.62518  0.19958  1.0000
  O   O89       1.0  0.10648  0.62511  0.23182  1.0000
  O   O90       1.0  0.14350  0.62500  0.23182  1.0000
  H   H90       1.0  0.15891  0.62495  0.19958  1.0000
  H   H91       1.0  0.19959  0.62488  0.15890  1.0000
  O   O91       1.0  0.23183  0.62489  0.14349  1.0000
  O   O92       1.0  0.23181  0.62488  0.10647  1.0000
  H   H92       1.0  0.19957  0.62498  0.09109  1.0000
  H   H93       1.0  0.09110  0.62491  0.05044  1.0000
  O   O93       1.0  0.10650  0.62501  0.01820  1.0000
  O   O94       1.0  0.14352  0.62510  0.01820  1.0000
  H   H94       1.0  0.15892  0.62513  0.05043  1.0000
  H   H95       1.0  0.05043  0.62508  0.15891  1.0000
  O   O95       1.0  0.01820  0.62493  0.14350  1.0000
  O   O96       1.0  0.01821  0.62486  0.10648  1.0000
  H   H96       1.0  0.05046  0.62485  0.09109  1.0000
  Ni  Ni12      1.0  0.12501  0.62507  0.12501  1.0000
  C   C385      1.0  0.37483  0.85471  0.94980  1.0000
  C   C386      1.0  0.37487  0.86486  0.96717  1.0000
  C   C387      1.0  0.37493  0.88508  0.96717  1.0000
  C   C388      1.0  0.37496  0.89525  0.94981  1.0000
  C   C389      1.0  0.37492  0.88465  0.93297  1.0000
  C   C390      1.0  0.37485  0.86532  0.93296  1.0000
  C   C391      1.0  0.37482  0.85928  0.91403  1.0000
  N   N97       1.0  0.37488  0.87500  0.90180  1.0000
  C   C392      1.0  0.37494  0.89070  0.91404  1.0000
  N   N98       1.0  0.37502  0.90924  0.90926  1.0000
  C   C393      1.0  0.37501  0.91403  0.89073  1.0000
  N   N99       1.0  0.37495  0.90178  0.87502  1.0000
  C   C394      1.0  0.37492  0.91403  0.85931  1.0000
  C   C395      1.0  0.37497  0.93296  0.86535  1.0000
  C   C396      1.0  0.37502  0.93296  0.88469  1.0000
  N   N100      1.0  0.37491  0.87501  0.84823  1.0000
  C   C397      1.0  0.37486  0.89072  0.83599  1.0000
  N   N101      1.0  0.37483  0.90925  0.84077  1.0000
  C   C398      1.0  0.37489  0.88468  0.81706  1.0000
  C   C399      1.0  0.37497  0.86535  0.81706  1.0000
  C   C400      1.0  0.37499  0.85930  0.83599  1.0000
  C   C401      1.0  0.37505  0.94980  0.89528  1.0000
  C   C402      1.0  0.37505  0.96716  0.88512  1.0000
  C   C403      1.0  0.37503  0.96716  0.86490  1.0000
  C   C404      1.0  0.37498  0.94979  0.85475  1.0000
  C   C405      1.0  0.37500  0.85475  0.80022  1.0000
  C   C406      1.0  0.37494  0.86491  0.78286  1.0000
  C   C407      1.0  0.37488  0.88513  0.78286  1.0000
  C   C408      1.0  0.37486  0.89529  0.80022  1.0000
  N   N102      1.0  0.37494  0.84822  0.87501  1.0000
  C   C409      1.0  0.37502  0.83599  0.85929  1.0000
  N   N103      1.0  0.37508  0.84077  0.84077  1.0000
  C   C410      1.0  0.37501  0.81706  0.86533  1.0000
  C   C411      1.0  0.37493  0.81705  0.88467  1.0000
  C   C412      1.0  0.37487  0.83598  0.89072  1.0000
  C   C413      1.0  0.37493  0.80020  0.89526  1.0000
  C   C414      1.0  0.37502  0.78285  0.88509  1.0000
  C   C415      1.0  0.37507  0.78286  0.86487  1.0000
  C   C416      1.0  0.37507  0.80023  0.85472  1.0000
  N   N104      1.0  0.37478  0.84075  0.90925  1.0000
  H   H97       1.0  0.37479  0.84107  0.94957  1.0000
  O   O97       1.0  0.37486  0.85645  0.98182  1.0000
  O   O98       1.0  0.37496  0.89348  0.98183  1.0000
  H   H98       1.0  0.37500  0.90889  0.94959  1.0000
  H   H99       1.0  0.37507  0.94958  0.90892  1.0000
  O   O99       1.0  0.37505  0.98182  0.89351  1.0000
  O   O100      1.0  0.37506  0.98181  0.85649  1.0000
  H   H100      1.0  0.37496  0.94957  0.84110  1.0000
  H   H101      1.0  0.37505  0.84111  0.80044  1.0000
  O   O101      1.0  0.37494  0.85651  0.76820  1.0000
  O   O102      1.0  0.37484  0.89354  0.76821  1.0000
  H   H102      1.0  0.37482  0.90893  0.80044  1.0000
  H   H103      1.0  0.37489  0.80042  0.90890  1.0000
  O   O103      1.0  0.37505  0.76819  0.89349  1.0000
  O   O104      1.0  0.37511  0.76821  0.85646  1.0000
  H   H104      1.0  0.37511  0.80046  0.84108  1.0000
  Ni  Ni13      1.0  0.37489  0.87500  0.87502  1.0000
  C   C417      1.0  0.10473  0.37515  0.94984  1.0000
  C   C418      1.0  0.11488  0.37511  0.96720  1.0000
  C   C419      1.0  0.13510  0.37505  0.96720  1.0000
  C   C420      1.0  0.14526  0.37502  0.94984  1.0000
  C   C421      1.0  0.13467  0.37505  0.93300  1.0000
  C   C422      1.0  0.11533  0.37513  0.93300  1.0000
  C   C423      1.0  0.10929  0.37515  0.91407  1.0000
  N   N105      1.0  0.12500  0.37509  0.90183  1.0000
  C   C424      1.0  0.14071  0.37503  0.91407  1.0000
  N   N106      1.0  0.15924  0.37495  0.90929  1.0000
  C   C425      1.0  0.16403  0.37496  0.89075  1.0000
  N   N107      1.0  0.15178  0.37502  0.87504  1.0000
  C   C426      1.0  0.16403  0.37505  0.85933  1.0000
  C   C427      1.0  0.18295  0.37499  0.86537  1.0000
  C   C428      1.0  0.18296  0.37495  0.88471  1.0000
  N   N108      1.0  0.12501  0.37506  0.84826  1.0000
  C   C429      1.0  0.14072  0.37511  0.83602  1.0000
  N   N109      1.0  0.15925  0.37514  0.84080  1.0000
  C   C430      1.0  0.13467  0.37508  0.81709  1.0000
  C   C431      1.0  0.11534  0.37500  0.81709  1.0000
  C   C432      1.0  0.10929  0.37498  0.83602  1.0000
  C   C433      1.0  0.19981  0.37492  0.89530  1.0000
  C   C434      1.0  0.21716  0.37492  0.88513  1.0000
  C   C435      1.0  0.21716  0.37493  0.86491  1.0000
  C   C436      1.0  0.19979  0.37498  0.85476  1.0000
  C   C437      1.0  0.10474  0.37497  0.80025  1.0000
  C   C438      1.0  0.11489  0.37503  0.78289  1.0000
  C   C439      1.0  0.13511  0.37509  0.78289  1.0000
  C   C440      1.0  0.14527  0.37511  0.80025  1.0000
  N   N110      1.0  0.09822  0.37504  0.87505  1.0000
  C   C441      1.0  0.08598  0.37496  0.85933  1.0000
  N   N111      1.0  0.09076  0.37490  0.84080  1.0000
  C   C442      1.0  0.06706  0.37497  0.86537  1.0000
  C   C443      1.0  0.06705  0.37505  0.88471  1.0000
  C   C444      1.0  0.08598  0.37511  0.89076  1.0000
  C   C445      1.0  0.05021  0.37505  0.89531  1.0000
  C   C446      1.0  0.03285  0.37497  0.88514  1.0000
  C   C447      1.0  0.03285  0.37492  0.86492  1.0000
  C   C448      1.0  0.05022  0.37491  0.85477  1.0000
  N   N112      1.0  0.09076  0.37520  0.90929  1.0000
  H   H105      1.0  0.09108  0.37519  0.94961  1.0000
  O   O105      1.0  0.10648  0.37512  0.98185  1.0000
  O   O106      1.0  0.14350  0.37502  0.98186  1.0000
  H   H106      1.0  0.15891  0.37497  0.94962  1.0000
  H   H107      1.0  0.19959  0.37490  0.90894  1.0000
  O   O107      1.0  0.23182  0.37491  0.89352  1.0000
  O   O108      1.0  0.23180  0.37490  0.85650  1.0000
  H   H108      1.0  0.19956  0.37500  0.84112  1.0000
  H   H109      1.0  0.09110  0.37493  0.80048  1.0000
  O   O109      1.0  0.10649  0.37503  0.76824  1.0000
  O   O110      1.0  0.14351  0.37512  0.76823  1.0000
  H   H110      1.0  0.15891  0.37515  0.80047  1.0000
  H   H111      1.0  0.05042  0.37509  0.90895  1.0000
  O   O111      1.0  0.01819  0.37494  0.89354  1.0000
  O   O112      1.0  0.01820  0.37487  0.85651  1.0000
  H   H112      1.0  0.05045  0.37486  0.84113  1.0000
  Ni  Ni14      1.0  0.12500  0.37508  0.87505  1.0000
  C   C449      1.0  0.62477  0.10473  0.94979  1.0000
  C   C450      1.0  0.62481  0.11488  0.96715  1.0000
  C   C451      1.0  0.62488  0.13510  0.96716  1.0000
  C   C452      1.0  0.62491  0.14527  0.94979  1.0000
  C   C453      1.0  0.62487  0.13467  0.93295  1.0000
  C   C454      1.0  0.62479  0.11533  0.93295  1.0000
  C   C455      1.0  0.62477  0.10929  0.91402  1.0000
  N   N113      1.0  0.62483  0.12501  0.90178  1.0000
  C   C456      1.0  0.62489  0.14072  0.91402  1.0000
  N   N114      1.0  0.62497  0.15925  0.90924  1.0000
  C   C457      1.0  0.62496  0.16404  0.89071  1.0000
  N   N115      1.0  0.62490  0.15179  0.87500  1.0000
  C   C458      1.0  0.62488  0.16403  0.85928  1.0000
  C   C459      1.0  0.62493  0.18296  0.86532  1.0000
  C   C460      1.0  0.62498  0.18296  0.88466  1.0000
  N   N116      1.0  0.62487  0.12501  0.84822  1.0000
  C   C461      1.0  0.62482  0.14072  0.83597  1.0000
  N   N117      1.0  0.62479  0.15926  0.84075  1.0000
  C   C462      1.0  0.62485  0.13468  0.81704  1.0000
  C   C463      1.0  0.62493  0.11535  0.81705  1.0000
  C   C464      1.0  0.62495  0.10930  0.83597  1.0000
  C   C465      1.0  0.62501  0.19981  0.89525  1.0000
  C   C466      1.0  0.62501  0.21717  0.88508  1.0000
  C   C467      1.0  0.62499  0.21716  0.86487  1.0000
  C   C468      1.0  0.62494  0.19980  0.85472  1.0000
  C   C469      1.0  0.62496  0.10475  0.80021  1.0000
  C   C470      1.0  0.62490  0.11490  0.78284  1.0000
  C   C471      1.0  0.62484  0.13512  0.78284  1.0000
  C   C472      1.0  0.62482  0.14528  0.80020  1.0000
  N   N118      1.0  0.62489  0.09823  0.87500  1.0000
  C   C473      1.0  0.62497  0.08599  0.85929  1.0000
  N   N119      1.0  0.62503  0.09077  0.84076  1.0000
  C   C474      1.0  0.62496  0.06706  0.86532  1.0000
  C   C475      1.0  0.62488  0.06706  0.88466  1.0000
  C   C476      1.0  0.62482  0.08599  0.89071  1.0000
  C   C477      1.0  0.62488  0.05021  0.89526  1.0000
  C   C478      1.0  0.62496  0.03285  0.88509  1.0000
  C   C479      1.0  0.62501  0.03286  0.86487  1.0000
  C   C480      1.0  0.62502  0.05023  0.85472  1.0000
  N   N120      1.0  0.62473  0.09077  0.90924  1.0000
  H   H113      1.0  0.62473  0.09109  0.94956  1.0000
  O   O113      1.0  0.62480  0.10648  0.98181  1.0000
  O   O114      1.0  0.62490  0.14350  0.98181  1.0000
  H   H114      1.0  0.62495  0.15891  0.94957  1.0000
  H   H115      1.0  0.62503  0.19960  0.90889  1.0000
  O   O115      1.0  0.62501  0.23183  0.89348  1.0000
  O   O116      1.0  0.62502  0.23181  0.85646  1.0000
  H   H116      1.0  0.62493  0.19957  0.84108  1.0000
  H   H117      1.0  0.62501  0.09110  0.80043  1.0000
  O   O117      1.0  0.62490  0.10650  0.76819  1.0000
  O   O118      1.0  0.62481  0.14352  0.76819  1.0000
  H   H118      1.0  0.62478  0.15892  0.80042  1.0000
  H   H119      1.0  0.62483  0.05043  0.90890  1.0000
  O   O119      1.0  0.62499  0.01820  0.89349  1.0000
  O   O120      1.0  0.62506  0.01821  0.85646  1.0000
  H   H120      1.0  0.62507  0.05046  0.84108  1.0000
  Ni  Ni15      1.0  0.62484  0.12501  0.87500  1.0000
  C   C481      1.0  0.85474  0.62522  0.94981  1.0000
  C   C482      1.0  0.86490  0.62518  0.96718  1.0000
  C   C483      1.0  0.88512  0.62511  0.96718  1.0000
  C   C484      1.0  0.89528  0.62508  0.94981  1.0000
  C   C485      1.0  0.88468  0.62512  0.93297  1.0000
  C   C486      1.0  0.86534  0.62520  0.93297  1.0000
  C   C487      1.0  0.85930  0.62522  0.91404  1.0000
  N   N121      1.0  0.87502  0.62516  0.90180  1.0000
  C   C488      1.0  0.89073  0.62510  0.91404  1.0000
  N   N122      1.0  0.90926  0.62501  0.90926  1.0000
  C   C489      1.0  0.91404  0.62502  0.89073  1.0000
  N   N123      1.0  0.90180  0.62508  0.87502  1.0000
  C   C490      1.0  0.91404  0.62511  0.85930  1.0000
  C   C491      1.0  0.93297  0.62505  0.86534  1.0000
  C   C492      1.0  0.93297  0.62501  0.88468  1.0000
  N   N124      1.0  0.87502  0.62512  0.84824  1.0000
  C   C493      1.0  0.89073  0.62517  0.83599  1.0000
  N   N125      1.0  0.90926  0.62520  0.84077  1.0000
  C   C494      1.0  0.88469  0.62514  0.81706  1.0000
  C   C495      1.0  0.86535  0.62506  0.81707  1.0000
  C   C496      1.0  0.85931  0.62505  0.83600  1.0000
  C   C497      1.0  0.94982  0.62498  0.89527  1.0000
  C   C498      1.0  0.96718  0.62498  0.88510  1.0000
  C   C499      1.0  0.96717  0.62499  0.86488  1.0000
  C   C500      1.0  0.94980  0.62504  0.85474  1.0000
  C   C501      1.0  0.85475  0.62503  0.80023  1.0000
  C   C502      1.0  0.86491  0.62509  0.78287  1.0000
  C   C503      1.0  0.88512  0.62515  0.78286  1.0000
  C   C504      1.0  0.89529  0.62517  0.80022  1.0000
  N   N126      1.0  0.84824  0.62511  0.87502  1.0000
  C   C505      1.0  0.83600  0.62503  0.85931  1.0000
  N   N127      1.0  0.84078  0.62496  0.84078  1.0000
  C   C506      1.0  0.81707  0.62503  0.86535  1.0000
  C   C507      1.0  0.81707  0.62512  0.88469  1.0000
  C   C508      1.0  0.83599  0.62517  0.89073  1.0000
  C   C509      1.0  0.80022  0.62512  0.89528  1.0000
  C   C510      1.0  0.78286  0.62504  0.88511  1.0000
  C   C511      1.0  0.78287  0.62498  0.86490  1.0000
  C   C512      1.0  0.80024  0.62498  0.85474  1.0000
  N   N128      1.0  0.84078  0.62526  0.90926  1.0000
  H   H121      1.0  0.84110  0.62526  0.94959  1.0000
  O   O121      1.0  0.85649  0.62519  0.98183  1.0000
  O   O122      1.0  0.89352  0.62509  0.98183  1.0000
  H   H122      1.0  0.90892  0.62504  0.94959  1.0000
  H   H123      1.0  0.94961  0.62496  0.90891  1.0000
  O   O123      1.0  0.98184  0.62497  0.89350  1.0000
  O   O124      1.0  0.98182  0.62496  0.85647  1.0000
  H   H124      1.0  0.94958  0.62506  0.84109  1.0000
  H   H125      1.0  0.84111  0.62499  0.80045  1.0000
  O   O125      1.0  0.85650  0.62509  0.76821  1.0000
  O   O126      1.0  0.89353  0.62518  0.76821  1.0000
  H   H126      1.0  0.90893  0.62521  0.80044  1.0000
  H   H127      1.0  0.80044  0.62516  0.90892  1.0000
  O   O127      1.0  0.76821  0.62501  0.89351  1.0000
  O   O128      1.0  0.76822  0.62494  0.85649  1.0000
  H   H128      1.0  0.80047  0.62493  0.84110  1.0000
  Ni  Ni16      1.0  0.87502  0.62515  0.87502  1.0000
  C   C513      1.0  0.10473  0.37515  0.19983  1.0000
  C   C514      1.0  0.11489  0.37511  0.21720  1.0000
  C   C515      1.0  0.13511  0.37504  0.21719  1.0000
  C   C516      1.0  0.14527  0.37501  0.19983  1.0000
  C   C517      1.0  0.13467  0.37505  0.18299  1.0000
  C   C518      1.0  0.11533  0.37513  0.18299  1.0000
  C   C519      1.0  0.10929  0.37515  0.16406  1.0000
  N   N129      1.0  0.12500  0.37509  0.15182  1.0000
  C   C520      1.0  0.14071  0.37503  0.16406  1.0000
  N   N130      1.0  0.15924  0.37494  0.15928  1.0000
  C   C521      1.0  0.16403  0.37495  0.14074  1.0000
  N   N131      1.0  0.15178  0.37501  0.12503  1.0000
  C   C522      1.0  0.16402  0.37504  0.10932  1.0000
  C   C523      1.0  0.18295  0.37498  0.11536  1.0000
  C   C524      1.0  0.18295  0.37493  0.13469  1.0000
  N   N132      1.0  0.12500  0.37506  0.09826  1.0000
  C   C525      1.0  0.14071  0.37510  0.08601  1.0000
  N   N133      1.0  0.15924  0.37513  0.09079  1.0000
  C   C526      1.0  0.13466  0.37507  0.06708  1.0000
  C   C527      1.0  0.11532  0.37500  0.06709  1.0000
  C   C528      1.0  0.10929  0.37498  0.08602  1.0000
  C   C529      1.0  0.19980  0.37490  0.14528  1.0000
  C   C530      1.0  0.21716  0.37490  0.13511  1.0000
  C   C531      1.0  0.21715  0.37492  0.11489  1.0000
  C   C532      1.0  0.19978  0.37497  0.10475  1.0000
  C   C533      1.0  0.10472  0.37497  0.05025  1.0000
  C   C534      1.0  0.11488  0.37502  0.03289  1.0000
  C   C535      1.0  0.13509  0.37508  0.03288  1.0000
  C   C536      1.0  0.14526  0.37510  0.05024  1.0000
  N   N134      1.0  0.09822  0.37504  0.12504  1.0000
  C   C537      1.0  0.08598  0.37496  0.10933  1.0000
  N   N135      1.0  0.09076  0.37490  0.09080  1.0000
  C   C538      1.0  0.06705  0.37497  0.11537  1.0000
  C   C539      1.0  0.06705  0.37506  0.13471  1.0000
  C   C540      1.0  0.08598  0.37511  0.14075  1.0000
  C   C541      1.0  0.05020  0.37506  0.14531  1.0000
  C   C542      1.0  0.03284  0.37498  0.13514  1.0000
  C   C543      1.0  0.03285  0.37492  0.11493  1.0000
  C   C544      1.0  0.05021  0.37492  0.10477  1.0000
  N   N136      1.0  0.09076  0.37520  0.15928  1.0000
  H   H129      1.0  0.09109  0.37520  0.19961  1.0000
  O   O129      1.0  0.10648  0.37512  0.23185  1.0000
  O   O130      1.0  0.14351  0.37502  0.23185  1.0000
  H   H130      1.0  0.15891  0.37496  0.19961  1.0000
  H   H131      1.0  0.19959  0.37488  0.15892  1.0000
  O   O131      1.0  0.23182  0.37489  0.14350  1.0000
  O   O132      1.0  0.23180  0.37488  0.10648  1.0000
  H   H132      1.0  0.19955  0.37499  0.09110  1.0000
  H   H133      1.0  0.09108  0.37493  0.05048  1.0000
  O   O133      1.0  0.10647  0.37503  0.01824  1.0000
  O   O134      1.0  0.14350  0.37511  0.01823  1.0000
  H   H134      1.0  0.15890  0.37514  0.05046  1.0000
  H   H135      1.0  0.05042  0.37510  0.15895  1.0000
  O   O135      1.0  0.01819  0.37495  0.14355  1.0000
  O   O136      1.0  0.01820  0.37489  0.10652  1.0000
  H   H136      1.0  0.05044  0.37487  0.09113  1.0000
  Ni  Ni17      1.0  0.12500  0.37508  0.12504  1.0000
  C   C545      1.0  0.10475  0.62516  0.94980  1.0000
  C   C546      1.0  0.11490  0.62511  0.96716  1.0000
  C   C547      1.0  0.13512  0.62505  0.96716  1.0000
  C   C548      1.0  0.14528  0.62502  0.94980  1.0000
  C   C549      1.0  0.13468  0.62506  0.93296  1.0000
  C   C550      1.0  0.11535  0.62514  0.93296  1.0000
  C   C551      1.0  0.10931  0.62516  0.91403  1.0000
  N   N137      1.0  0.12502  0.62510  0.90179  1.0000
  C   C552      1.0  0.14073  0.62503  0.91403  1.0000
  N   N138      1.0  0.15926  0.62495  0.90924  1.0000
  C   C553      1.0  0.16404  0.62496  0.89071  1.0000
  N   N139      1.0  0.15180  0.62502  0.87500  1.0000
  C   C554      1.0  0.16404  0.62505  0.85929  1.0000
  C   C555      1.0  0.18297  0.62499  0.86532  1.0000
  C   C556      1.0  0.18297  0.62494  0.88466  1.0000
  N   N140      1.0  0.12502  0.62506  0.84822  1.0000
  C   C557      1.0  0.14073  0.62512  0.83598  1.0000
  N   N141      1.0  0.15926  0.62514  0.84075  1.0000
  C   C558      1.0  0.13468  0.62508  0.81705  1.0000
  C   C559      1.0  0.11534  0.62501  0.81705  1.0000
  C   C560      1.0  0.10930  0.62499  0.83598  1.0000
  C   C561      1.0  0.19982  0.62491  0.89525  1.0000
  C   C562      1.0  0.21718  0.62491  0.88508  1.0000
  C   C563      1.0  0.21717  0.62493  0.86486  1.0000
  C   C564      1.0  0.19980  0.62498  0.85471  1.0000
  C   C565      1.0  0.10474  0.62498  0.80022  1.0000
  C   C566      1.0  0.11490  0.62503  0.78285  1.0000
  C   C567      1.0  0.13511  0.62509  0.78285  1.0000
  C   C568      1.0  0.14528  0.62511  0.80021  1.0000
  N   N142      1.0  0.09824  0.62505  0.87501  1.0000
  C   C569      1.0  0.08599  0.62497  0.85930  1.0000
  N   N143      1.0  0.09077  0.62491  0.84077  1.0000
  C   C570      1.0  0.06707  0.62497  0.86534  1.0000
  C   C571      1.0  0.06706  0.62506  0.88468  1.0000
  C   C572      1.0  0.08599  0.62511  0.89072  1.0000
  C   C573      1.0  0.05022  0.62506  0.89527  1.0000
  C   C574      1.0  0.03286  0.62498  0.88511  1.0000
  C   C575      1.0  0.03287  0.62493  0.86489  1.0000
  C   C576      1.0  0.05023  0.62492  0.85474  1.0000
  N   N144      1.0  0.09078  0.62520  0.90925  1.0000
  H   H137      1.0  0.09110  0.62520  0.94958  1.0000
  O   O137      1.0  0.10650  0.62513  0.98182  1.0000
  O   O138      1.0  0.14352  0.62502  0.98182  1.0000
  H   H138      1.0  0.15892  0.62497  0.94957  1.0000
  H   H139      1.0  0.19961  0.62489  0.90889  1.0000
  O   O139      1.0  0.23184  0.62491  0.89347  1.0000
  O   O140      1.0  0.23182  0.62490  0.85645  1.0000
  H   H140      1.0  0.19957  0.62500  0.84107  1.0000
  H   H141      1.0  0.09110  0.62494  0.80044  1.0000
  O   O141      1.0  0.10649  0.62504  0.76820  1.0000
  O   O142      1.0  0.14352  0.62513  0.76819  1.0000
  H   H142      1.0  0.15892  0.62515  0.80042  1.0000
  H   H143      1.0  0.05044  0.62510  0.90891  1.0000
  O   O143      1.0  0.01821  0.62495  0.89351  1.0000
  O   O144      1.0  0.01821  0.62489  0.85648  1.0000
  H   H144      1.0  0.05046  0.62488  0.84109  1.0000
  Ni  Ni18      1.0  0.12502  0.62509  0.87501  1.0000
  C   C577      1.0  0.37480  0.14529  0.80021  1.0000
  C   C578      1.0  0.37484  0.13513  0.78284  1.0000
  C   C579      1.0  0.37490  0.11491  0.78284  1.0000
  C   C580      1.0  0.37493  0.10475  0.80020  1.0000
  C   C581      1.0  0.37489  0.11534  0.81704  1.0000
  C   C582      1.0  0.37482  0.13468  0.81705  1.0000
  C   C583      1.0  0.37480  0.14072  0.83597  1.0000
  N   N145      1.0  0.37485  0.12500  0.84821  1.0000
  C   C584      1.0  0.37492  0.10929  0.83597  1.0000
  N   N146      1.0  0.37500  0.09076  0.84075  1.0000
  C   C585      1.0  0.37499  0.08597  0.85928  1.0000
  N   N147      1.0  0.37493  0.09822  0.87499  1.0000
  C   C586      1.0  0.37490  0.08597  0.89071  1.0000
  C   C587      1.0  0.37495  0.06705  0.88466  1.0000
  C   C588      1.0  0.37500  0.06704  0.86533  1.0000
  N   N148      1.0  0.37489  0.12499  0.90178  1.0000
  C   C589      1.0  0.37483  0.10928  0.91402  1.0000
  N   N149      1.0  0.37481  0.09075  0.90924  1.0000
  C   C590      1.0  0.37487  0.11532  0.93295  1.0000
  C   C591      1.0  0.37494  0.13466  0.93295  1.0000
  C   C592      1.0  0.37496  0.14070  0.91402  1.0000
  C   C593      1.0  0.37503  0.05020  0.85474  1.0000
  C   C594      1.0  0.37503  0.03284  0.86490  1.0000
  C   C595      1.0  0.37501  0.03284  0.88512  1.0000
  C   C596      1.0  0.37496  0.05021  0.89527  1.0000
  C   C597      1.0  0.37497  0.14525  0.94979  1.0000
  C   C598      1.0  0.37492  0.13510  0.96715  1.0000
  C   C599      1.0  0.37486  0.11488  0.96715  1.0000
  C   C600      1.0  0.37484  0.10472  0.94979  1.0000
  N   N150      1.0  0.37491  0.15178  0.87500  1.0000
  C   C601      1.0  0.37499  0.16402  0.89071  1.0000
  N   N151      1.0  0.37505  0.15923  0.90924  1.0000
  C   C602      1.0  0.37498  0.18294  0.88468  1.0000
  C   C603      1.0  0.37490  0.18295  0.86534  1.0000
  C   C604      1.0  0.37484  0.16402  0.85929  1.0000
  C   C605      1.0  0.37490  0.19980  0.85475  1.0000
  C   C606      1.0  0.37498  0.21715  0.86491  1.0000
  C   C607      1.0  0.37503  0.21714  0.88513  1.0000
  C   C608      1.0  0.37504  0.19978  0.89528  1.0000
  N   N152      1.0  0.37475  0.15925  0.84076  1.0000
  H   H145      1.0  0.37476  0.15893  0.80043  1.0000
  O   O145      1.0  0.37483  0.14354  0.76819  1.0000
  O   O146      1.0  0.37493  0.10652  0.76818  1.0000
  H   H146      1.0  0.37498  0.09111  0.80042  1.0000
  H   H147      1.0  0.37505  0.05042  0.84109  1.0000
  O   O147      1.0  0.37503  0.01818  0.85650  1.0000
  O   O148      1.0  0.37504  0.01819  0.89353  1.0000
  H   H148      1.0  0.37494  0.05044  0.90891  1.0000
  H   H149      1.0  0.37502  0.15889  0.94957  1.0000
  O   O149      1.0  0.37491  0.14350  0.98180  1.0000
  O   O150      1.0  0.37482  0.10647  0.98180  1.0000
  H   H150      1.0  0.37480  0.09108  0.94957  1.0000
  H   H151      1.0  0.37486  0.19958  0.84110  1.0000
  O   O151      1.0  0.37501  0.23181  0.85652  1.0000
  O   O152      1.0  0.37508  0.23179  0.89354  1.0000
  H   H152      1.0  0.37508  0.19955  0.90892  1.0000
  Ni  Ni19      1.0  0.37486  0.12500  0.87499  1.0000
  C   C609      1.0  0.85472  0.37518  0.94984  1.0000
  C   C610      1.0  0.86488  0.37514  0.96720  1.0000
  C   C611      1.0  0.88509  0.37507  0.96721  1.0000
  C   C612      1.0  0.89526  0.37504  0.94985  1.0000
  C   C613      1.0  0.88466  0.37508  0.93300  1.0000
  C   C614      1.0  0.86533  0.37515  0.93300  1.0000
  C   C615      1.0  0.85929  0.37517  0.91407  1.0000
  N   N153      1.0  0.87500  0.37511  0.90183  1.0000
  C   C616      1.0  0.89071  0.37505  0.91408  1.0000
  N   N154      1.0  0.90925  0.37497  0.90930  1.0000
  C   C617      1.0  0.91403  0.37498  0.89076  1.0000
  N   N155      1.0  0.90179  0.37503  0.87505  1.0000
  C   C618      1.0  0.91403  0.37506  0.85934  1.0000
  C   C619      1.0  0.93296  0.37500  0.86538  1.0000
  C   C620      1.0  0.93296  0.37496  0.88472  1.0000
  N   N156      1.0  0.87501  0.37507  0.84827  1.0000
  C   C621      1.0  0.89073  0.37512  0.83602  1.0000
  N   N157      1.0  0.90926  0.37514  0.84081  1.0000
  C   C622      1.0  0.88468  0.37508  0.81710  1.0000
  C   C623      1.0  0.86535  0.37501  0.81710  1.0000
  C   C624      1.0  0.85930  0.37499  0.83602  1.0000
  C   C625      1.0  0.94981  0.37493  0.89531  1.0000
  C   C626      1.0  0.96717  0.37493  0.88514  1.0000
  C   C627      1.0  0.96716  0.37494  0.86493  1.0000
  C   C628      1.0  0.94980  0.37499  0.85478  1.0000
  C   C629      1.0  0.85475  0.37498  0.80026  1.0000
  C   C630      1.0  0.86491  0.37503  0.78289  1.0000
  C   C631      1.0  0.88513  0.37509  0.78289  1.0000
  C   C632      1.0  0.89528  0.37511  0.80025  1.0000
  N   N158      1.0  0.84823  0.37506  0.87505  1.0000
  C   C633      1.0  0.83599  0.37497  0.85933  1.0000
  N   N159      1.0  0.84077  0.37491  0.84081  1.0000
  C   C634      1.0  0.81706  0.37498  0.86537  1.0000
  C   C635      1.0  0.81705  0.37507  0.88471  1.0000
  C   C636      1.0  0.83598  0.37512  0.89076  1.0000
  C   C637      1.0  0.80021  0.37507  0.89530  1.0000
  C   C638      1.0  0.78285  0.37499  0.88513  1.0000
  C   C639      1.0  0.78286  0.37493  0.86492  1.0000
  C   C640      1.0  0.80023  0.37493  0.85476  1.0000
  N   N160      1.0  0.84076  0.37522  0.90929  1.0000
  H   H153      1.0  0.84108  0.37522  0.94961  1.0000
  O   O153      1.0  0.85647  0.37515  0.98186  1.0000
  O   O154      1.0  0.89349  0.37505  0.98186  1.0000
  H   H154      1.0  0.90890  0.37499  0.94962  1.0000
  H   H155      1.0  0.94959  0.37491  0.90895  1.0000
  O   O155      1.0  0.98182  0.37492  0.89354  1.0000
  O   O156      1.0  0.98181  0.37491  0.85652  1.0000
  H   H156      1.0  0.94957  0.37501  0.84113  1.0000
  H   H157      1.0  0.84111  0.37493  0.80048  1.0000
  O   O157      1.0  0.85651  0.37503  0.76824  1.0000
  O   O158      1.0  0.89353  0.37512  0.76824  1.0000
  H   H158      1.0  0.90893  0.37515  0.80047  1.0000
  H   H159      1.0  0.80042  0.37512  0.90894  1.0000
  O   O159      1.0  0.76819  0.37496  0.89353  1.0000
  O   O160      1.0  0.76821  0.37489  0.85651  1.0000
  H   H160      1.0  0.80046  0.37488  0.84112  1.0000
  Ni  Ni20      1.0  0.87501  0.37510  0.87505  1.0000
  C   C641      1.0  0.62485  0.85473  0.94980  1.0000
  C   C642      1.0  0.62489  0.86488  0.96717  1.0000
  C   C643      1.0  0.62495  0.88510  0.96717  1.0000
  C   C644      1.0  0.62498  0.89527  0.94980  1.0000
  C   C645      1.0  0.62494  0.88467  0.93296  1.0000
  C   C646      1.0  0.62487  0.86533  0.93296  1.0000
  C   C647      1.0  0.62485  0.85929  0.91403  1.0000
  N   N161      1.0  0.62491  0.87501  0.90179  1.0000
  C   C648      1.0  0.62496  0.89072  0.91403  1.0000
  N   N162      1.0  0.62504  0.90925  0.90925  1.0000
  C   C649      1.0  0.62503  0.91404  0.89072  1.0000
  N   N163      1.0  0.62497  0.90179  0.87501  1.0000
  C   C650      1.0  0.62494  0.91403  0.85930  1.0000
  C   C651      1.0  0.62500  0.93296  0.86534  1.0000
  C   C652      1.0  0.62505  0.93296  0.88467  1.0000
  N   N164      1.0  0.62494  0.87501  0.84823  1.0000
  C   C653      1.0  0.62489  0.89072  0.83598  1.0000
  N   N165      1.0  0.62486  0.90925  0.84076  1.0000
  C   C654      1.0  0.62492  0.88468  0.81706  1.0000
  C   C655      1.0  0.62500  0.86535  0.81706  1.0000
  C   C656      1.0  0.62502  0.85930  0.83599  1.0000
  C   C657      1.0  0.62507  0.94981  0.89526  1.0000
  C   C658      1.0  0.62507  0.96717  0.88510  1.0000
  C   C659      1.0  0.62505  0.96716  0.86488  1.0000
  C   C660      1.0  0.62500  0.94980  0.85473  1.0000
  C   C661      1.0  0.62503  0.85475  0.80022  1.0000
  C   C662      1.0  0.62497  0.86490  0.78286  1.0000
  C   C663      1.0  0.62491  0.88512  0.78285  1.0000
  C   C664      1.0  0.62489  0.89528  0.80021  1.0000
  N   N166      1.0  0.62496  0.84823  0.87501  1.0000
  C   C665      1.0  0.62505  0.83599  0.85930  1.0000
  N   N167      1.0  0.62511  0.84077  0.84077  1.0000
  C   C666      1.0  0.62504  0.81706  0.86534  1.0000
  C   C667      1.0  0.62496  0.81706  0.88467  1.0000
  C   C668      1.0  0.62490  0.83599  0.89072  1.0000
  C   C669      1.0  0.62496  0.80021  0.89527  1.0000
  C   C670      1.0  0.62505  0.78285  0.88510  1.0000
  C   C671      1.0  0.62510  0.78286  0.86488  1.0000
  C   C672      1.0  0.62510  0.80023  0.85473  1.0000
  N   N168      1.0  0.62481  0.84077  0.90925  1.0000
  H   H161      1.0  0.62481  0.84109  0.94958  1.0000
  O   O161      1.0  0.62488  0.85648  0.98182  1.0000
  O   O162      1.0  0.62497  0.89350  0.98182  1.0000
  H   H162      1.0  0.62502  0.90891  0.94958  1.0000
  H   H163      1.0  0.62509  0.94959  0.90891  1.0000
  O   O163      1.0  0.62507  0.98183  0.89349  1.0000
  O   O164      1.0  0.62508  0.98181  0.85647  1.0000
  H   H164      1.0  0.62499  0.94957  0.84109  1.0000
  H   H165      1.0  0.62508  0.84110  0.80044  1.0000
  O   O165      1.0  0.62497  0.85650  0.76820  1.0000
  O   O166      1.0  0.62487  0.89352  0.76820  1.0000
  H   H166      1.0  0.62485  0.90892  0.80043  1.0000
  H   H167      1.0  0.62492  0.80043  0.90891  1.0000
  O   O167      1.0  0.62508  0.76820  0.89350  1.0000
  O   O168      1.0  0.62514  0.76821  0.85648  1.0000
  H   H168      1.0  0.62515  0.80046  0.84109  1.0000
  Ni  Ni21      1.0  0.62492  0.87501  0.87501  1.0000
  C   C673      1.0  0.85472  0.62515  0.19981  1.0000
  C   C674      1.0  0.86488  0.62511  0.21717  1.0000
  C   C675      1.0  0.88509  0.62505  0.21717  1.0000
  C   C676      1.0  0.89526  0.62502  0.19981  1.0000
  C   C677      1.0  0.88466  0.62506  0.18297  1.0000
  C   C678      1.0  0.86533  0.62514  0.18297  1.0000
  C   C679      1.0  0.85929  0.62516  0.16404  1.0000
  N   N169      1.0  0.87500  0.62510  0.15180  1.0000
  C   C680      1.0  0.89071  0.62504  0.16404  1.0000
  N   N170      1.0  0.90924  0.62496  0.15926  1.0000
  C   C681      1.0  0.91403  0.62497  0.14073  1.0000
  N   N171      1.0  0.90179  0.62503  0.12502  1.0000
  C   C682      1.0  0.91403  0.62506  0.10931  1.0000
  C   C683      1.0  0.93296  0.62500  0.11535  1.0000
  C   C684      1.0  0.93296  0.62495  0.13468  1.0000
  N   N172      1.0  0.87501  0.62507  0.09824  1.0000
  C   C685      1.0  0.89072  0.62513  0.08599  1.0000
  N   N173      1.0  0.90925  0.62515  0.09077  1.0000
  C   C686      1.0  0.88468  0.62510  0.06706  1.0000
  C   C687      1.0  0.86534  0.62502  0.06706  1.0000
  C   C688      1.0  0.85930  0.62500  0.08599  1.0000
  C   C689      1.0  0.94981  0.62492  0.14527  1.0000
  C   C690      1.0  0.96716  0.62493  0.13511  1.0000
  C   C691      1.0  0.96716  0.62494  0.11489  1.0000
  C   C692      1.0  0.94979  0.62499  0.10474  1.0000
  C   C693      1.0  0.85475  0.62499  0.05022  1.0000
  C   C694      1.0  0.86490  0.62505  0.03286  1.0000
  C   C695      1.0  0.88512  0.62511  0.03286  1.0000
  C   C696      1.0  0.89528  0.62513  0.05022  1.0000
  N   N174      1.0  0.84823  0.62505  0.12501  1.0000
  C   C697      1.0  0.83599  0.62497  0.10930  1.0000
  N   N175      1.0  0.84077  0.62492  0.09077  1.0000
  C   C698      1.0  0.81706  0.62498  0.11534  1.0000
  C   C699      1.0  0.81705  0.62506  0.13468  1.0000
  C   C700      1.0  0.83598  0.62512  0.14072  1.0000
  C   C701      1.0  0.80021  0.62506  0.14527  1.0000
  C   C702      1.0  0.78285  0.62498  0.13510  1.0000
  C   C703      1.0  0.78286  0.62493  0.11488  1.0000
  C   C704      1.0  0.80022  0.62493  0.10473  1.0000
  N   N176      1.0  0.84076  0.62520  0.15925  1.0000
  H   H169      1.0  0.84108  0.62520  0.19958  1.0000
  O   O169      1.0  0.85647  0.62512  0.23182  1.0000
  O   O170      1.0  0.89349  0.62502  0.23183  1.0000
  H   H170      1.0  0.90890  0.62497  0.19959  1.0000
  H   H171      1.0  0.94959  0.62490  0.15892  1.0000
  O   O171      1.0  0.98182  0.62492  0.14351  1.0000
  O   O172      1.0  0.98181  0.62491  0.10648  1.0000
  H   H172      1.0  0.94957  0.62501  0.09110  1.0000
  H   H173      1.0  0.84110  0.62495  0.05045  1.0000
  O   O173      1.0  0.85650  0.62506  0.01821  1.0000
  O   O174      1.0  0.89353  0.62515  0.01821  1.0000
  H   H174      1.0  0.90892  0.62517  0.05044  1.0000
  H   H175      1.0  0.80042  0.62510  0.15891  1.0000
  O   O175      1.0  0.76819  0.62495  0.14350  1.0000
  O   O176      1.0  0.76821  0.62489  0.10648  1.0000
  H   H176      1.0  0.80046  0.62488  0.09109  1.0000
  Ni  Ni22      1.0  0.87501  0.62510  0.12502  1.0000
  C   C705      1.0  0.37489  0.85469  0.19980  1.0000
  C   C706      1.0  0.37493  0.86484  0.21717  1.0000
  C   C707      1.0  0.37499  0.88506  0.21717  1.0000
  C   C708      1.0  0.37502  0.89522  0.19981  1.0000
  C   C709      1.0  0.37498  0.88463  0.18296  1.0000
  C   C710      1.0  0.37491  0.86529  0.18296  1.0000
  C   C711      1.0  0.37488  0.85925  0.16403  1.0000
  N   N177      1.0  0.37494  0.87497  0.15179  1.0000
  C   C712      1.0  0.37500  0.89068  0.16404  1.0000
  N   N178      1.0  0.37508  0.90921  0.15925  1.0000
  C   C713      1.0  0.37507  0.91399  0.14072  1.0000
  N   N179      1.0  0.37501  0.90175  0.12501  1.0000
  C   C714      1.0  0.37498  0.91399  0.10930  1.0000
  C   C715      1.0  0.37504  0.93292  0.11534  1.0000
  C   C716      1.0  0.37509  0.93292  0.13467  1.0000
  N   N180      1.0  0.37497  0.87497  0.09823  1.0000
  C   C717      1.0  0.37492  0.89068  0.08598  1.0000
  N   N181      1.0  0.37490  0.90921  0.09077  1.0000
  C   C718      1.0  0.37496  0.88464  0.06706  1.0000
  C   C719      1.0  0.37503  0.86530  0.06706  1.0000
  C   C720      1.0  0.37505  0.85926  0.08599  1.0000
  C   C721      1.0  0.37511  0.94977  0.14527  1.0000
  C   C722      1.0  0.37511  0.96713  0.13510  1.0000
  C   C723      1.0  0.37509  0.96712  0.11488  1.0000
  C   C724      1.0  0.37505  0.94976  0.10473  1.0000
  C   C725      1.0  0.37506  0.85471  0.05022  1.0000
  C   C726      1.0  0.37501  0.86486  0.03286  1.0000
  C   C727      1.0  0.37494  0.88508  0.03286  1.0000
  C   C728      1.0  0.37492  0.89524  0.05021  1.0000
  N   N182      1.0  0.37500  0.84819  0.12501  1.0000
  C   C729      1.0  0.37508  0.83595  0.10930  1.0000
  N   N183      1.0  0.37514  0.84073  0.09077  1.0000
  C   C730      1.0  0.37507  0.81702  0.11534  1.0000
  C   C731      1.0  0.37499  0.81702  0.13467  1.0000
  C   C732      1.0  0.37493  0.83594  0.14072  1.0000
  C   C733      1.0  0.37499  0.80017  0.14527  1.0000
  C   C734      1.0  0.37507  0.78281  0.13510  1.0000
  C   C735      1.0  0.37513  0.78282  0.11488  1.0000
  C   C736      1.0  0.37513  0.80019  0.10473  1.0000
  N   N184      1.0  0.37484  0.84072  0.15925  1.0000
  H   H177      1.0  0.37485  0.84105  0.19958  1.0000
  O   O177      1.0  0.37492  0.85643  0.23182  1.0000
  O   O178      1.0  0.37502  0.89346  0.23182  1.0000
  H   H178      1.0  0.37506  0.90887  0.19958  1.0000
  H   H179      1.0  0.37513  0.94955  0.15891  1.0000
  O   O179      1.0  0.37512  0.98178  0.14349  1.0000
  O   O180      1.0  0.37512  0.98177  0.10647  1.0000
  H   H180      1.0  0.37503  0.94953  0.09109  1.0000
  H   H181      1.0  0.37511  0.84106  0.05044  1.0000
  O   O181      1.0  0.37500  0.85646  0.01820  1.0000
  O   O182      1.0  0.37491  0.89348  0.01820  1.0000
  H   H182      1.0  0.37488  0.90888  0.05043  1.0000
  H   H183      1.0  0.37495  0.80039  0.15891  1.0000
  O   O183      1.0  0.37510  0.76816  0.14350  1.0000
  O   O184      1.0  0.37517  0.76817  0.10647  1.0000
  H   H184      1.0  0.37518  0.80042  0.09109  1.0000
  Ni  Ni23      1.0  0.37495  0.87497  0.12501  1.0000
  C   C737      1.0  0.62482  0.14526  0.05020  1.0000
  C   C738      1.0  0.62486  0.13510  0.03284  1.0000
  C   C739      1.0  0.62492  0.11488  0.03283  1.0000
  C   C740      1.0  0.62496  0.10472  0.05020  1.0000
  C   C741      1.0  0.62492  0.11531  0.06704  1.0000
  C   C742      1.0  0.62484  0.13465  0.06704  1.0000
  C   C743      1.0  0.62482  0.14069  0.08597  1.0000
  N   N185      1.0  0.62489  0.12498  0.09821  1.0000
  C   C744      1.0  0.62495  0.10927  0.08597  1.0000
  N   N186      1.0  0.62503  0.09073  0.09075  1.0000
  C   C745      1.0  0.62502  0.08595  0.10928  1.0000
  N   N187      1.0  0.62496  0.09819  0.12499  1.0000
  C   C746      1.0  0.62494  0.08595  0.14070  1.0000
  C   C747      1.0  0.62500  0.06702  0.13466  1.0000
  C   C748      1.0  0.62504  0.06702  0.11532  1.0000
  N   N188      1.0  0.62493  0.12497  0.15177  1.0000
  C   C749      1.0  0.62488  0.10926  0.16402  1.0000
  N   N189      1.0  0.62486  0.09073  0.15924  1.0000
  C   C750      1.0  0.62492  0.11530  0.18295  1.0000
  C   C751      1.0  0.62499  0.13463  0.18294  1.0000
  C   C752      1.0  0.62501  0.14068  0.16402  1.0000
  C   C753      1.0  0.62507  0.05017  0.10473  1.0000
  C   C754      1.0  0.62507  0.03281  0.11490  1.0000
  C   C755      1.0  0.62506  0.03282  0.13512  1.0000
  C   C756      1.0  0.62501  0.05018  0.14527  1.0000
  C   C757      1.0  0.62502  0.14523  0.19978  1.0000
  C   C758      1.0  0.62497  0.13507  0.21715  1.0000
  C   C759      1.0  0.62491  0.11486  0.21715  1.0000
  C   C760      1.0  0.62489  0.10470  0.19979  1.0000
  N   N190      1.0  0.62494  0.15175  0.12499  1.0000
  C   C761      1.0  0.62503  0.16399  0.14071  1.0000
  N   N191      1.0  0.62509  0.15921  0.15924  1.0000
  C   C762      1.0  0.62502  0.18292  0.13467  1.0000
  C   C763      1.0  0.62493  0.18293  0.11533  1.0000
  C   C764      1.0  0.62487  0.16400  0.10928  1.0000
  C   C765      1.0  0.62493  0.19977  0.10474  1.0000
  C   C766      1.0  0.62501  0.21713  0.11490  1.0000
  C   C767      1.0  0.62507  0.21712  0.13512  1.0000
  C   C768      1.0  0.62508  0.19975  0.14528  1.0000
  N   N192      1.0  0.62478  0.15922  0.09075  1.0000
  H   H185      1.0  0.62478  0.15890  0.05043  1.0000
  O   O185      1.0  0.62484  0.14351  0.01818  1.0000
  O   O186      1.0  0.62494  0.10649  0.01818  1.0000
  H   H186      1.0  0.62500  0.09108  0.05042  1.0000
  H   H187      1.0  0.62508  0.05039  0.09109  1.0000
  O   O187      1.0  0.62507  0.01816  0.10650  1.0000
  O   O188      1.0  0.62509  0.01817  0.14353  1.0000
  H   H188      1.0  0.62499  0.05041  0.15891  1.0000
  H   H189      1.0  0.62507  0.15887  0.19956  1.0000
  O   O189      1.0  0.62497  0.14348  0.23180  1.0000
  O   O190      1.0  0.62488  0.10645  0.23180  1.0000
  H   H190      1.0  0.62485  0.09106  0.19957  1.0000
  H   H191      1.0  0.62488  0.19956  0.09110  1.0000
  O   O191      1.0  0.62504  0.23179  0.10651  1.0000
  O   O192      1.0  0.62511  0.23177  0.14353  1.0000
  H   H192      1.0  0.62512  0.19952  0.15892  1.0000
  Ni  Ni24      1.0  0.62490  0.12497  0.12499  1.0000
  C   C769      1.0  0.60474  0.55022  0.87515  1.0000
  C   C770      1.0  0.61490  0.53286  0.87511  1.0000
  C   C771      1.0  0.63512  0.53286  0.87505  1.0000
  C   C772      1.0  0.64528  0.55022  0.87502  1.0000
  C   C773      1.0  0.63468  0.56706  0.87506  1.0000
  C   C774      1.0  0.61534  0.56706  0.87513  1.0000
  C   C775      1.0  0.60930  0.58599  0.87515  1.0000
  N   N193      1.0  0.62502  0.59823  0.87509  1.0000
  C   C776      1.0  0.64073  0.58599  0.87504  1.0000
  N   N194      1.0  0.65926  0.59077  0.87496  1.0000
  C   C777      1.0  0.66404  0.60931  0.87497  1.0000
  N   N195      1.0  0.65180  0.62502  0.87503  1.0000
  C   C778      1.0  0.66404  0.64073  0.87506  1.0000
  C   C779      1.0  0.68297  0.63469  0.87500  1.0000
  C   C780      1.0  0.68297  0.61535  0.87496  1.0000
  N   N196      1.0  0.62502  0.65179  0.87506  1.0000
  C   C781      1.0  0.64073  0.66404  0.87512  1.0000
  N   N197      1.0  0.65926  0.65926  0.87514  1.0000
  C   C782      1.0  0.63469  0.68297  0.87508  1.0000
  C   C783      1.0  0.61535  0.68296  0.87500  1.0000
  C   C784      1.0  0.60931  0.66404  0.87498  1.0000
  C   C785      1.0  0.69982  0.60477  0.87493  1.0000
  C   C786      1.0  0.71718  0.61493  0.87493  1.0000
  C   C787      1.0  0.71717  0.63515  0.87495  1.0000
  C   C788      1.0  0.69980  0.64530  0.87500  1.0000
  C   C789      1.0  0.60475  0.69980  0.87497  1.0000
  C   C790      1.0  0.61491  0.71717  0.87503  1.0000
  C   C791      1.0  0.63512  0.71717  0.87509  1.0000
  C   C792      1.0  0.64528  0.69981  0.87512  1.0000
  N   N198      1.0  0.59824  0.62501  0.87504  1.0000
  C   C793      1.0  0.58600  0.64072  0.87496  1.0000
  N   N199      1.0  0.59078  0.65925  0.87490  1.0000
  C   C794      1.0  0.56707  0.63468  0.87496  1.0000
  C   C795      1.0  0.56707  0.61534  0.87504  1.0000
  C   C796      1.0  0.58599  0.60930  0.87510  1.0000
  C   C797      1.0  0.55022  0.60475  0.87504  1.0000
  C   C798      1.0  0.53286  0.61491  0.87495  1.0000
  C   C799      1.0  0.53287  0.63513  0.87490  1.0000
  C   C800      1.0  0.55024  0.64529  0.87490  1.0000
  N   N200      1.0  0.59078  0.59077  0.87519  1.0000
  H   H193      1.0  0.59110  0.55044  0.87519  1.0000
  O   O193      1.0  0.60649  0.51820  0.87512  1.0000
  O   O194      1.0  0.64352  0.51820  0.87502  1.0000
  H   H194      1.0  0.65892  0.55044  0.87498  1.0000
  H   H195      1.0  0.69961  0.59112  0.87491  1.0000
  O   O195      1.0  0.73184  0.60654  0.87493  1.0000
  O   O196      1.0  0.73182  0.64356  0.87492  1.0000
  H   H196      1.0  0.69958  0.65894  0.87502  1.0000
  H   H197      1.0  0.59111  0.69958  0.87492  1.0000
  O   O197      1.0  0.60650  0.73182  0.87503  1.0000
  O   O198      1.0  0.64353  0.73182  0.87513  1.0000
  H   H198      1.0  0.65893  0.69959  0.87515  1.0000
  H   H199      1.0  0.55044  0.59111  0.87508  1.0000
  O   O199      1.0  0.51821  0.60651  0.87492  1.0000
  O   O200      1.0  0.51822  0.64354  0.87486  1.0000
  H   H200      1.0  0.55047  0.65893  0.87485  1.0000
  Ni  Ni25      1.0  0.62502  0.62501  0.87508  1.0000
  C   C801      1.0  0.35474  0.55020  0.87509  1.0000
  C   C802      1.0  0.36490  0.53284  0.87505  1.0000
  C   C803      1.0  0.38511  0.53284  0.87499  1.0000
  C   C804      1.0  0.39528  0.55020  0.87495  1.0000
  C   C805      1.0  0.38468  0.56704  0.87499  1.0000
  C   C806      1.0  0.36534  0.56704  0.87507  1.0000
  C   C807      1.0  0.35930  0.58597  0.87509  1.0000
  N   N201      1.0  0.37501  0.59821  0.87503  1.0000
  C   C808      1.0  0.39073  0.58597  0.87497  1.0000
  N   N202      1.0  0.40926  0.59076  0.87489  1.0000
  C   C809      1.0  0.41404  0.60929  0.87490  1.0000
  N   N203      1.0  0.40180  0.62500  0.87496  1.0000
  C   C810      1.0  0.41404  0.64071  0.87498  1.0000
  C   C811      1.0  0.43297  0.63467  0.87493  1.0000
  C   C812      1.0  0.43297  0.61534  0.87488  1.0000
  N   N204      1.0  0.37502  0.65178  0.87499  1.0000
  C   C813      1.0  0.39073  0.66402  0.87504  1.0000
  N   N205      1.0  0.40926  0.65924  0.87507  1.0000
  C   C814      1.0  0.38468  0.68295  0.87501  1.0000
  C   C815      1.0  0.36535  0.68295  0.87493  1.0000
  C   C816      1.0  0.35931  0.66402  0.87491  1.0000
  C   C817      1.0  0.44982  0.60475  0.87485  1.0000
  C   C818      1.0  0.46718  0.61492  0.87485  1.0000
  C   C819      1.0  0.46717  0.63514  0.87487  1.0000
  C   C820      1.0  0.44980  0.64528  0.87492  1.0000
  C   C821      1.0  0.35475  0.69979  0.87490  1.0000
  C   C822      1.0  0.36490  0.71715  0.87496  1.0000
  C   C823      1.0  0.38512  0.71715  0.87502  1.0000
  C   C824      1.0  0.39528  0.69979  0.87504  1.0000
  N   N206      1.0  0.34824  0.62499  0.87498  1.0000
  C   C825      1.0  0.33599  0.64070  0.87489  1.0000
  N   N207      1.0  0.34078  0.65923  0.87483  1.0000
  C   C826      1.0  0.31707  0.63466  0.87490  1.0000
  C   C827      1.0  0.31706  0.61533  0.87499  1.0000
  C   C828      1.0  0.33599  0.60928  0.87504  1.0000
  C   C829      1.0  0.30022  0.60473  0.87498  1.0000
  C   C830      1.0  0.28286  0.61489  0.87490  1.0000
  C   C831      1.0  0.28287  0.63511  0.87485  1.0000
  C   C832      1.0  0.30023  0.64527  0.87484  1.0000
  N   N208      1.0  0.34077  0.59075  0.87513  1.0000
  H   H201      1.0  0.34110  0.55043  0.87513  1.0000
  O   O201      1.0  0.35649  0.51819  0.87506  1.0000
  O   O202      1.0  0.39351  0.51818  0.87496  1.0000
  H   H202      1.0  0.40892  0.55043  0.87491  1.0000
  H   H203      1.0  0.44960  0.59111  0.87483  1.0000
  O   O203      1.0  0.48183  0.60652  0.87485  1.0000
  O   O204      1.0  0.48182  0.64355  0.87484  1.0000
  H   H204      1.0  0.44957  0.65892  0.87493  1.0000
  H   H205      1.0  0.34111  0.69956  0.87486  1.0000
  O   O205      1.0  0.35650  0.73180  0.87496  1.0000
  O   O206      1.0  0.39352  0.73181  0.87505  1.0000
  H   H206      1.0  0.40892  0.69958  0.87508  1.0000
  H   H207      1.0  0.30044  0.59109  0.87503  1.0000
  O   O207      1.0  0.26820  0.60649  0.87488  1.0000
  O   O208      1.0  0.26822  0.64352  0.87481  1.0000
  H   H208      1.0  0.30046  0.65891  0.87480  1.0000
  Ni  Ni26      1.0  0.37502  0.62499  0.87502  1.0000
  C   C833      1.0  0.35472  0.30020  0.87519  1.0000
  C   C834      1.0  0.36487  0.28284  0.87515  1.0000
  C   C835      1.0  0.38509  0.28284  0.87509  1.0000
  C   C836      1.0  0.39526  0.30020  0.87505  1.0000
  C   C837      1.0  0.38466  0.31704  0.87509  1.0000
  C   C838      1.0  0.36532  0.31704  0.87517  1.0000
  C   C839      1.0  0.35928  0.33597  0.87519  1.0000
  N   N209      1.0  0.37500  0.34821  0.87512  1.0000
  C   C840      1.0  0.39071  0.33597  0.87506  1.0000
  N   N210      1.0  0.40924  0.34075  0.87498  1.0000
  C   C841      1.0  0.41403  0.35928  0.87498  1.0000
  N   N211      1.0  0.40178  0.37499  0.87504  1.0000
  C   C842      1.0  0.41402  0.39071  0.87507  1.0000
  C   C843      1.0  0.43295  0.38467  0.87501  1.0000
  C   C844      1.0  0.43295  0.36533  0.87496  1.0000
  N   N212      1.0  0.37500  0.40178  0.87508  1.0000
  C   C845      1.0  0.39072  0.41402  0.87512  1.0000
  N   N213      1.0  0.40925  0.40924  0.87515  1.0000
  C   C846      1.0  0.38467  0.43295  0.87509  1.0000
  C   C847      1.0  0.36534  0.43295  0.87502  1.0000
  C   C848      1.0  0.35929  0.41402  0.87500  1.0000
  C   C849      1.0  0.44980  0.35474  0.87493  1.0000
  C   C850      1.0  0.46716  0.36491  0.87493  1.0000
  C   C851      1.0  0.46715  0.38513  0.87494  1.0000
  C   C852      1.0  0.44979  0.39528  0.87499  1.0000
  C   C853      1.0  0.35474  0.44979  0.87498  1.0000
  C   C854      1.0  0.36489  0.46715  0.87503  1.0000
  C   C855      1.0  0.38511  0.46715  0.87509  1.0000
  C   C856      1.0  0.39527  0.44979  0.87512  1.0000
  N   N214      1.0  0.34822  0.37499  0.87507  1.0000
  C   C857      1.0  0.33598  0.39071  0.87498  1.0000
  N   N215      1.0  0.34076  0.40924  0.87492  1.0000
  C   C858      1.0  0.31705  0.38467  0.87499  1.0000
  C   C859      1.0  0.31705  0.36533  0.87508  1.0000
  C   C860      1.0  0.33597  0.35928  0.87514  1.0000
  C   C861      1.0  0.30020  0.35474  0.87508  1.0000
  C   C862      1.0  0.28284  0.36490  0.87500  1.0000
  C   C863      1.0  0.28285  0.38512  0.87495  1.0000
  C   C864      1.0  0.30022  0.39527  0.87494  1.0000
  N   N216      1.0  0.34075  0.34075  0.87523  1.0000
  H   H209      1.0  0.34108  0.30043  0.87523  1.0000
  O   O209      1.0  0.35647  0.26819  0.87517  1.0000
  O   O210      1.0  0.39349  0.26818  0.87506  1.0000
  H   H210      1.0  0.40890  0.30042  0.87500  1.0000
  H   H211      1.0  0.44958  0.34110  0.87492  1.0000
  O   O211      1.0  0.48182  0.35651  0.87493  1.0000
  O   O212      1.0  0.48180  0.39354  0.87491  1.0000
  H   H212      1.0  0.44956  0.40892  0.87501  1.0000
  H   H213      1.0  0.34110  0.44956  0.87494  1.0000
  O   O213      1.0  0.35649  0.48180  0.87504  1.0000
  O   O214      1.0  0.39352  0.48180  0.87512  1.0000
  H   H214      1.0  0.40891  0.44957  0.87515  1.0000
  H   H215      1.0  0.30042  0.34109  0.87513  1.0000
  O   O215      1.0  0.26819  0.35650  0.87498  1.0000
  O   O216      1.0  0.26820  0.39353  0.87491  1.0000
  H   H216      1.0  0.30045  0.40891  0.87489  1.0000
  Ni  Ni27      1.0  0.37500  0.37499  0.87511  1.0000
  C   C865      1.0  0.60471  0.30021  0.87514  1.0000
  C   C866      1.0  0.61487  0.28285  0.87510  1.0000
  C   C867      1.0  0.63509  0.28285  0.87503  1.0000
  C   C868      1.0  0.64525  0.30021  0.87500  1.0000
  C   C869      1.0  0.63466  0.31705  0.87504  1.0000
  C   C870      1.0  0.61532  0.31705  0.87512  1.0000
  C   C871      1.0  0.60928  0.33598  0.87514  1.0000
  N   N217      1.0  0.62500  0.34822  0.87508  1.0000
  C   C872      1.0  0.64071  0.33598  0.87502  1.0000
  N   N218      1.0  0.65924  0.34076  0.87494  1.0000
  C   C873      1.0  0.66402  0.35929  0.87495  1.0000
  N   N219      1.0  0.65178  0.37500  0.87501  1.0000
  C   C874      1.0  0.66403  0.39072  0.87504  1.0000
  C   C875      1.0  0.68295  0.38468  0.87498  1.0000
  C   C876      1.0  0.68295  0.36534  0.87493  1.0000
  N   N220      1.0  0.62501  0.40179  0.87505  1.0000
  C   C877      1.0  0.64072  0.41403  0.87510  1.0000
  N   N221      1.0  0.65925  0.40925  0.87512  1.0000
  C   C878      1.0  0.63468  0.43296  0.87506  1.0000
  C   C879      1.0  0.61534  0.43296  0.87499  1.0000
  C   C880      1.0  0.60930  0.41403  0.87497  1.0000
  C   C881      1.0  0.69980  0.35475  0.87491  1.0000
  C   C882      1.0  0.71716  0.36492  0.87491  1.0000
  C   C883      1.0  0.71715  0.38513  0.87492  1.0000
  C   C884      1.0  0.69979  0.39528  0.87497  1.0000
  C   C885      1.0  0.60474  0.44980  0.87496  1.0000
  C   C886      1.0  0.61490  0.46716  0.87501  1.0000
  C   C887      1.0  0.63512  0.46716  0.87507  1.0000
  C   C888      1.0  0.64528  0.44980  0.87510  1.0000
  N   N222      1.0  0.59822  0.37501  0.87503  1.0000
  C   C889      1.0  0.58598  0.39072  0.87494  1.0000
  N   N223      1.0  0.59076  0.40925  0.87488  1.0000
  C   C890      1.0  0.56705  0.38468  0.87495  1.0000
  C   C891      1.0  0.56705  0.36534  0.87503  1.0000
  C   C892      1.0  0.58597  0.35930  0.87509  1.0000
  C   C893      1.0  0.55020  0.35475  0.87503  1.0000
  C   C894      1.0  0.53284  0.36492  0.87495  1.0000
  C   C895      1.0  0.53285  0.38514  0.87490  1.0000
  C   C896      1.0  0.55022  0.39529  0.87489  1.0000
  N   N224      1.0  0.59075  0.34077  0.87518  1.0000
  H   H217      1.0  0.59107  0.30044  0.87518  1.0000
  O   O217      1.0  0.60646  0.26820  0.87511  1.0000
  O   O218      1.0  0.64349  0.26819  0.87501  1.0000
  H   H218      1.0  0.65889  0.30043  0.87496  1.0000
  H   H219      1.0  0.69958  0.34111  0.87489  1.0000
  O   O219      1.0  0.73182  0.35652  0.87490  1.0000
  O   O220      1.0  0.73180  0.39354  0.87489  1.0000
  H   H220      1.0  0.69956  0.40893  0.87499  1.0000
  H   H221      1.0  0.59110  0.44957  0.87491  1.0000
  O   O221      1.0  0.60650  0.48181  0.87502  1.0000
  O   O222      1.0  0.64352  0.48181  0.87511  1.0000
  H   H222      1.0  0.65892  0.44958  0.87513  1.0000
  H   H223      1.0  0.55042  0.34111  0.87508  1.0000
  O   O223      1.0  0.51819  0.35652  0.87492  1.0000
  O   O224      1.0  0.51820  0.39354  0.87486  1.0000
  H   H224      1.0  0.55045  0.40893  0.87485  1.0000
  Ni  Ni28      1.0  0.62500  0.37500  0.87507  1.0000
  C   C897      1.0  0.60472  0.30018  0.12519  1.0000
  C   C898      1.0  0.61488  0.28282  0.12515  1.0000
  C   C899      1.0  0.63510  0.28282  0.12510  1.0000
  C   C900      1.0  0.64526  0.30019  0.12507  1.0000
  C   C901      1.0  0.63466  0.31703  0.12510  1.0000
  C   C902      1.0  0.61532  0.31703  0.12517  1.0000
  C   C903      1.0  0.60928  0.33595  0.12519  1.0000
  N   N225      1.0  0.62500  0.34820  0.12513  1.0000
  C   C904      1.0  0.64071  0.33595  0.12508  1.0000
  N   N226      1.0  0.65924  0.34074  0.12500  1.0000
  C   C905      1.0  0.66402  0.35927  0.12501  1.0000
  N   N227      1.0  0.65178  0.37498  0.12507  1.0000
  C   C906      1.0  0.66402  0.39070  0.12510  1.0000
  C   C907      1.0  0.68295  0.38466  0.12504  1.0000
  C   C908      1.0  0.68295  0.36532  0.12500  1.0000
  N   N228      1.0  0.62500  0.40176  0.12510  1.0000
  C   C909      1.0  0.64071  0.41401  0.12515  1.0000
  N   N229      1.0  0.65924  0.40923  0.12518  1.0000
  C   C910      1.0  0.63467  0.43293  0.12511  1.0000
  C   C911      1.0  0.61533  0.43293  0.12503  1.0000
  C   C912      1.0  0.60929  0.41400  0.12501  1.0000
  C   C913      1.0  0.69980  0.35473  0.12497  1.0000
  C   C914      1.0  0.71716  0.36490  0.12498  1.0000
  C   C915      1.0  0.71715  0.38512  0.12499  1.0000
  C   C916      1.0  0.69978  0.39527  0.12504  1.0000
  C   C917      1.0  0.60473  0.44977  0.12500  1.0000
  C   C918      1.0  0.61488  0.46713  0.12506  1.0000
  C   C919      1.0  0.63510  0.46713  0.12512  1.0000
  C   C920      1.0  0.64526  0.44978  0.12515  1.0000
  N   N230      1.0  0.59822  0.37498  0.12507  1.0000
  C   C921      1.0  0.58598  0.39069  0.12499  1.0000
  N   N231      1.0  0.59076  0.40922  0.12493  1.0000
  C   C922      1.0  0.56705  0.38464  0.12499  1.0000
  C   C923      1.0  0.56705  0.36531  0.12508  1.0000
  C   C924      1.0  0.58597  0.35926  0.12514  1.0000
  C   C925      1.0  0.55020  0.35471  0.12507  1.0000
  C   C926      1.0  0.53284  0.36488  0.12499  1.0000
  C   C927      1.0  0.53285  0.38510  0.12493  1.0000
  C   C928      1.0  0.55021  0.39525  0.12493  1.0000
  N   N232      1.0  0.59075  0.34073  0.12523  1.0000
  H   H225      1.0  0.59108  0.30041  0.12523  1.0000
  O   O225      1.0  0.60647  0.26817  0.12517  1.0000
  O   O226      1.0  0.64350  0.26817  0.12507  1.0000
  H   H226      1.0  0.65890  0.30041  0.12502  1.0000
  H   H227      1.0  0.69958  0.34109  0.12496  1.0000
  O   O227      1.0  0.73182  0.35651  0.12498  1.0000
  O   O228      1.0  0.73180  0.39353  0.12496  1.0000
  H   H228      1.0  0.69955  0.40891  0.12505  1.0000
  H   H229      1.0  0.59109  0.44954  0.12495  1.0000
  O   O229      1.0  0.60648  0.48178  0.12506  1.0000
  O   O230      1.0  0.64350  0.48179  0.12516  1.0000
  H   H230      1.0  0.65890  0.44956  0.12519  1.0000
  H   H231      1.0  0.55042  0.34107  0.12512  1.0000
  O   O231      1.0  0.51819  0.35648  0.12496  1.0000
  O   O232      1.0  0.51820  0.39350  0.12489  1.0000
  H   H232      1.0  0.55044  0.40889  0.12488  1.0000
  Ni  Ni29      1.0  0.62500  0.37498  0.12512  1.0000
  C   C929      1.0  0.60473  0.55018  0.12514  1.0000
  C   C930      1.0  0.61489  0.53282  0.12510  1.0000
  C   C931      1.0  0.63511  0.53282  0.12504  1.0000
  C   C932      1.0  0.64527  0.55018  0.12501  1.0000
  C   C933      1.0  0.63467  0.56702  0.12504  1.0000
  C   C934      1.0  0.61534  0.56702  0.12512  1.0000
  C   C935      1.0  0.60930  0.58595  0.12514  1.0000
  N   N233      1.0  0.62501  0.59819  0.12508  1.0000
  C   C936      1.0  0.64072  0.58595  0.12502  1.0000
  N   N234      1.0  0.65925  0.59074  0.12494  1.0000
  C   C937      1.0  0.66404  0.60927  0.12495  1.0000
  N   N235      1.0  0.65179  0.62498  0.12501  1.0000
  C   C938      1.0  0.66403  0.64069  0.12503  1.0000
  C   C939      1.0  0.68296  0.63465  0.12498  1.0000
  C   C940      1.0  0.68297  0.61532  0.12493  1.0000
  N   N236      1.0  0.62501  0.65176  0.12504  1.0000
  C   C941      1.0  0.64072  0.66400  0.12509  1.0000
  N   N237      1.0  0.65926  0.65922  0.12512  1.0000
  C   C942      1.0  0.63468  0.68293  0.12505  1.0000
  C   C943      1.0  0.61535  0.68293  0.12498  1.0000
  C   C944      1.0  0.60930  0.66400  0.12496  1.0000
  C   C945      1.0  0.69981  0.60473  0.12491  1.0000
  C   C946      1.0  0.71717  0.61490  0.12491  1.0000
  C   C947      1.0  0.71716  0.63511  0.12492  1.0000
  C   C948      1.0  0.69980  0.64526  0.12497  1.0000
  C   C949      1.0  0.60475  0.69977  0.12495  1.0000
  C   C950      1.0  0.61490  0.71713  0.12500  1.0000
  C   C951      1.0  0.63512  0.71713  0.12506  1.0000
  C   C952      1.0  0.64528  0.69977  0.12509  1.0000
  N   N238      1.0  0.59823  0.62498  0.12502  1.0000
  C   C953      1.0  0.58599  0.64069  0.12494  1.0000
  N   N239      1.0  0.59077  0.65922  0.12488  1.0000
  C   C954      1.0  0.56706  0.63465  0.12494  1.0000
  C   C955      1.0  0.56706  0.61531  0.12503  1.0000
  C   C956      1.0  0.58599  0.60926  0.12509  1.0000
  C   C957      1.0  0.55021  0.60471  0.12503  1.0000
  C   C958      1.0  0.53285  0.61488  0.12494  1.0000
  C   C959      1.0  0.53286  0.63510  0.12489  1.0000
  C   C960      1.0  0.55023  0.64525  0.12488  1.0000
  N   N240      1.0  0.59077  0.59073  0.12518  1.0000
  H   H233      1.0  0.59109  0.55041  0.12518  1.0000
  O   O233      1.0  0.60648  0.51817  0.12511  1.0000
  O   O234      1.0  0.64350  0.51816  0.12501  1.0000
  H   H234      1.0  0.65891  0.55041  0.12496  1.0000
  H   H235      1.0  0.69960  0.59109  0.12489  1.0000
  O   O235      1.0  0.73183  0.60650  0.12490  1.0000
  O   O236      1.0  0.73181  0.64352  0.12489  1.0000
  H   H236      1.0  0.69957  0.65890  0.12499  1.0000
  H   H237      1.0  0.59110  0.69954  0.12490  1.0000
  O   O237      1.0  0.60650  0.73178  0.12500  1.0000
  O   O238      1.0  0.64352  0.73179  0.12510  1.0000
  H   H238      1.0  0.65892  0.69956  0.12513  1.0000
  H   H239      1.0  0.55043  0.59107  0.12507  1.0000
  O   O239      1.0  0.51820  0.60648  0.12491  1.0000
  O   O240      1.0  0.51821  0.64351  0.12485  1.0000
  H   H240      1.0  0.55046  0.65889  0.12484  1.0000
  Ni  Ni30      1.0  0.62501  0.62497  0.12507  1.0000
  C   C961      1.0  0.35473  0.55017  0.12512  1.0000
  C   C962      1.0  0.36489  0.53281  0.12507  1.0000
  C   C963      1.0  0.38511  0.53281  0.12501  1.0000
  C   C964      1.0  0.39527  0.55017  0.12498  1.0000
  C   C965      1.0  0.38468  0.56701  0.12502  1.0000
  C   C966      1.0  0.36534  0.56701  0.12510  1.0000
  C   C967      1.0  0.35930  0.58594  0.12512  1.0000
  N   N241      1.0  0.37501  0.59818  0.12507  1.0000
  C   C968      1.0  0.39072  0.58594  0.12500  1.0000
  N   N242      1.0  0.40925  0.59072  0.12492  1.0000
  C   C969      1.0  0.41404  0.60925  0.12493  1.0000
  N   N243      1.0  0.40180  0.62497  0.12499  1.0000
  C   C970      1.0  0.41404  0.64068  0.12502  1.0000
  C   C971      1.0  0.43297  0.63464  0.12496  1.0000
  C   C972      1.0  0.43297  0.61530  0.12492  1.0000
  N   N244      1.0  0.37502  0.65175  0.12504  1.0000
  C   C973      1.0  0.39073  0.66399  0.12509  1.0000
  N   N245      1.0  0.40926  0.65921  0.12511  1.0000
  C   C974      1.0  0.38469  0.68292  0.12506  1.0000
  C   C975      1.0  0.36535  0.68292  0.12498  1.0000
  C   C976      1.0  0.35931  0.66399  0.12496  1.0000
  C   C977      1.0  0.44982  0.60471  0.12488  1.0000
  C   C978      1.0  0.46717  0.61488  0.12489  1.0000
  C   C979      1.0  0.46717  0.63510  0.12490  1.0000
  C   C980      1.0  0.44980  0.64525  0.12496  1.0000
  C   C981      1.0  0.35475  0.69976  0.12496  1.0000
  C   C982      1.0  0.36491  0.71712  0.12501  1.0000
  C   C983      1.0  0.38513  0.71712  0.12507  1.0000
  C   C984      1.0  0.39529  0.69976  0.12509  1.0000
  N   N246      1.0  0.34824  0.62497  0.12502  1.0000
  C   C985      1.0  0.33600  0.64068  0.12494  1.0000
  N   N247      1.0  0.34078  0.65921  0.12488  1.0000
  C   C986      1.0  0.31707  0.63464  0.12494  1.0000
  C   C987      1.0  0.31706  0.61530  0.12503  1.0000
  C   C988      1.0  0.33599  0.60926  0.12508  1.0000
  C   C989      1.0  0.30022  0.60471  0.12503  1.0000
  C   C990      1.0  0.28286  0.61487  0.12495  1.0000
  C   C991      1.0  0.28287  0.63509  0.12490  1.0000
  C   C992      1.0  0.30023  0.64524  0.12489  1.0000
  N   N248      1.0  0.34077  0.59072  0.12517  1.0000
  H   H241      1.0  0.34109  0.55040  0.12516  1.0000
  O   O241      1.0  0.35648  0.51816  0.12509  1.0000
  O   O242      1.0  0.39351  0.51815  0.12498  1.0000
  H   H242      1.0  0.40891  0.55039  0.12494  1.0000
  H   H243      1.0  0.44960  0.59107  0.12486  1.0000
  O   O243      1.0  0.48183  0.60648  0.12488  1.0000
  O   O244      1.0  0.48182  0.64351  0.12487  1.0000
  H   H244      1.0  0.44958  0.65889  0.12498  1.0000
  H   H245      1.0  0.34111  0.69953  0.12491  1.0000
  O   O245      1.0  0.35651  0.73177  0.12502  1.0000
  O   O246      1.0  0.39353  0.73178  0.12511  1.0000
  H   H246      1.0  0.40893  0.69954  0.12513  1.0000
  H   H247      1.0  0.30043  0.59106  0.12507  1.0000
  O   O247      1.0  0.26820  0.60647  0.12492  1.0000
  O   O248      1.0  0.26822  0.64350  0.12486  1.0000
  H   H248      1.0  0.30046  0.65888  0.12485  1.0000
  Ni  Ni31      1.0  0.37502  0.62496  0.12506  1.0000
  C   C993      1.0  0.35471  0.30017  0.12510  1.0000
  C   C994      1.0  0.36487  0.28281  0.12506  1.0000
  C   C995      1.0  0.38509  0.28281  0.12500  1.0000
  C   C996      1.0  0.39525  0.30017  0.12496  1.0000
  C   C997      1.0  0.38466  0.31701  0.12500  1.0000
  C   C998      1.0  0.36532  0.31701  0.12508  1.0000
  C   C999      1.0  0.35928  0.33594  0.12510  1.0000
  N   N249      1.0  0.37499  0.34818  0.12504  1.0000
  C   C1000     1.0  0.39070  0.33594  0.12498  1.0000
  N   N250      1.0  0.40924  0.34072  0.12489  1.0000
  C   C1001     1.0  0.41402  0.35925  0.12491  1.0000
  N   N251      1.0  0.40178  0.37496  0.12496  1.0000
  C   C1002     1.0  0.41402  0.39068  0.12499  1.0000
  C   C1003     1.0  0.43295  0.38464  0.12493  1.0000
  C   C1004     1.0  0.43295  0.36530  0.12489  1.0000
  N   N252      1.0  0.37500  0.40175  0.12500  1.0000
  C   C1005     1.0  0.39071  0.41399  0.12505  1.0000
  N   N253      1.0  0.40924  0.40921  0.12508  1.0000
  C   C1006     1.0  0.38467  0.43292  0.12502  1.0000
  C   C1007     1.0  0.36533  0.43292  0.12494  1.0000
  C   C1008     1.0  0.35929  0.41399  0.12492  1.0000
  C   C1009     1.0  0.44980  0.35471  0.12486  1.0000
  C   C1010     1.0  0.46716  0.36488  0.12486  1.0000
  C   C1011     1.0  0.46715  0.38510  0.12487  1.0000
  C   C1012     1.0  0.44978  0.39525  0.12492  1.0000
  C   C1013     1.0  0.35474  0.44976  0.12491  1.0000
  C   C1014     1.0  0.36489  0.46712  0.12496  1.0000
  C   C1015     1.0  0.38511  0.46712  0.12502  1.0000
  C   C1016     1.0  0.39527  0.44976  0.12505  1.0000
  N   N254      1.0  0.34822  0.37496  0.12498  1.0000
  C   C1017     1.0  0.33598  0.39068  0.12490  1.0000
  N   N255      1.0  0.34076  0.40921  0.12484  1.0000
  C   C1018     1.0  0.31705  0.38464  0.12491  1.0000
  C   C1019     1.0  0.31704  0.36530  0.12499  1.0000
  C   C1020     1.0  0.33597  0.35925  0.12505  1.0000
  C   C1021     1.0  0.30020  0.35471  0.12499  1.0000
  C   C1022     1.0  0.28284  0.36487  0.12491  1.0000
  C   C1023     1.0  0.28285  0.38509  0.12486  1.0000
  C   C1024     1.0  0.30022  0.39524  0.12485  1.0000
  N   N256      1.0  0.34075  0.34072  0.12514  1.0000
  H   H249      1.0  0.34107  0.30040  0.12514  1.0000
  O   O249      1.0  0.35646  0.26816  0.12507  1.0000
  O   O250      1.0  0.39349  0.26815  0.12497  1.0000
  H   H250      1.0  0.40889  0.30039  0.12492  1.0000
  H   H251      1.0  0.44958  0.34107  0.12484  1.0000
  O   O251      1.0  0.48181  0.35648  0.12486  1.0000
  O   O252      1.0  0.48180  0.39351  0.12484  1.0000
  H   H252      1.0  0.44956  0.40889  0.12494  1.0000
  H   H253      1.0  0.34109  0.44953  0.12486  1.0000
  O   O253      1.0  0.35649  0.48177  0.12497  1.0000
  O   O254      1.0  0.39351  0.48177  0.12506  1.0000
  H   H254      1.0  0.40891  0.44954  0.12508  1.0000
  H   H255      1.0  0.30041  0.34106  0.12504  1.0000
  O   O255      1.0  0.26818  0.35647  0.12488  1.0000
  O   O256      1.0  0.26820  0.39350  0.12482  1.0000
  H   H256      1.0  0.30045  0.40888  0.12480  1.0000
  Ni  Ni32      1.0  0.37500  0.37496  0.12503  1.0000
  C   C1025     1.0  0.87484  0.60473  0.69981  1.0000
  C   C1026     1.0  0.87489  0.61489  0.71717  1.0000
  C   C1027     1.0  0.87494  0.63511  0.71717  1.0000
  C   C1028     1.0  0.87497  0.64527  0.69980  1.0000
  C   C1029     1.0  0.87493  0.63467  0.68296  1.0000
  C   C1030     1.0  0.87486  0.61533  0.68297  1.0000
  C   C1031     1.0  0.87484  0.60929  0.66404  1.0000
  N   N257      1.0  0.87489  0.62500  0.65180  1.0000
  C   C1032     1.0  0.87495  0.64071  0.66403  1.0000
  N   N258      1.0  0.87503  0.65924  0.65925  1.0000
  C   C1033     1.0  0.87502  0.66403  0.64071  1.0000
  N   N259      1.0  0.87496  0.65178  0.62501  1.0000
  C   C1034     1.0  0.87493  0.66402  0.60929  1.0000
  C   C1035     1.0  0.87499  0.68294  0.61533  1.0000
  C   C1036     1.0  0.87503  0.68295  0.63466  1.0000
  N   N260      1.0  0.87492  0.62499  0.59823  1.0000
  C   C1037     1.0  0.87487  0.64070  0.58598  1.0000
  N   N261      1.0  0.87484  0.65923  0.59076  1.0000
  C   C1038     1.0  0.87490  0.63465  0.56706  1.0000
  C   C1039     1.0  0.87498  0.61532  0.56706  1.0000
  C   C1040     1.0  0.87500  0.60928  0.58599  1.0000
  C   C1041     1.0  0.87506  0.69980  0.64525  1.0000
  C   C1042     1.0  0.87506  0.71716  0.63508  1.0000
  C   C1043     1.0  0.87504  0.71715  0.61486  1.0000
  C   C1044     1.0  0.87499  0.69978  0.60471  1.0000
  C   C1045     1.0  0.87501  0.60471  0.55023  1.0000
  C   C1046     1.0  0.87495  0.61487  0.53286  1.0000
  C   C1047     1.0  0.87489  0.63508  0.53286  1.0000
  C   C1048     1.0  0.87486  0.64525  0.55021  1.0000
  N   N262      1.0  0.87494  0.59822  0.62502  1.0000
  C   C1049     1.0  0.87503  0.58597  0.60931  1.0000
  N   N263      1.0  0.87508  0.59075  0.59078  1.0000
  C   C1050     1.0  0.87502  0.56705  0.61535  1.0000
  C   C1051     1.0  0.87494  0.56705  0.63469  1.0000
  C   C1052     1.0  0.87488  0.58598  0.64073  1.0000
  C   C1053     1.0  0.87494  0.55020  0.64529  1.0000
  C   C1054     1.0  0.87502  0.53284  0.63513  1.0000
  C   C1055     1.0  0.87508  0.53285  0.61491  1.0000
  C   C1056     1.0  0.87508  0.55021  0.60475  1.0000
  N   N264      1.0  0.87479  0.59076  0.65926  1.0000
  H   H257      1.0  0.87480  0.59109  0.69959  1.0000
  O   O257      1.0  0.87487  0.60649  0.73183  1.0000
  O   O258      1.0  0.87497  0.64351  0.73182  1.0000
  H   H258      1.0  0.87502  0.65891  0.69958  1.0000
  H   H259      1.0  0.87508  0.69959  0.65889  1.0000
  O   O259      1.0  0.87506  0.73182  0.64347  1.0000
  O   O260      1.0  0.87507  0.73179  0.60644  1.0000
  H   H260      1.0  0.87497  0.69955  0.59107  1.0000
  H   H261      1.0  0.87505  0.59107  0.55045  1.0000
  O   O261      1.0  0.87494  0.60646  0.51821  1.0000
  O   O262      1.0  0.87485  0.64348  0.51820  1.0000
  H   H262      1.0  0.87483  0.65889  0.55043  1.0000
  H   H263      1.0  0.87490  0.55042  0.65893  1.0000
  O   O263      1.0  0.87506  0.51819  0.64353  1.0000
  O   O264      1.0  0.87512  0.51819  0.60650  1.0000
  H   H264      1.0  0.87512  0.55044  0.59111  1.0000
  Ni  Ni33      1.0  0.87490  0.62500  0.62502  1.0000
  C   C1057     1.0  0.35472  0.87525  0.69980  1.0000
  C   C1058     1.0  0.36487  0.87521  0.71717  1.0000
  C   C1059     1.0  0.38509  0.87514  0.71717  1.0000
  C   C1060     1.0  0.39525  0.87511  0.69980  1.0000
  C   C1061     1.0  0.38466  0.87515  0.68296  1.0000
  C   C1062     1.0  0.36532  0.87523  0.68296  1.0000
  C   C1063     1.0  0.35928  0.87525  0.66403  1.0000
  N   N265      1.0  0.37500  0.87519  0.65179  1.0000
  C   C1064     1.0  0.39071  0.87513  0.66404  1.0000
  N   N266      1.0  0.40924  0.87504  0.65925  1.0000
  C   C1065     1.0  0.41403  0.87505  0.64072  1.0000
  N   N267      1.0  0.40178  0.87511  0.62501  1.0000
  C   C1066     1.0  0.41403  0.87514  0.60930  1.0000
  C   C1067     1.0  0.43295  0.87508  0.61534  1.0000
  C   C1068     1.0  0.43295  0.87504  0.63468  1.0000
  N   N268      1.0  0.37500  0.87515  0.59823  1.0000
  C   C1069     1.0  0.39072  0.87520  0.58598  1.0000
  N   N269      1.0  0.40925  0.87522  0.59077  1.0000
  C   C1070     1.0  0.38467  0.87516  0.56706  1.0000
  C   C1071     1.0  0.36534  0.87509  0.56706  1.0000
  C   C1072     1.0  0.35929  0.87507  0.58598  1.0000
  C   C1073     1.0  0.44980  0.87501  0.64527  1.0000
  C   C1074     1.0  0.46716  0.87501  0.63510  1.0000
  C   C1075     1.0  0.46715  0.87502  0.61488  1.0000
  C   C1076     1.0  0.44979  0.87507  0.60473  1.0000
  C   C1077     1.0  0.35474  0.87506  0.55022  1.0000
  C   C1078     1.0  0.36490  0.87511  0.53286  1.0000
  C   C1079     1.0  0.38511  0.87517  0.53285  1.0000
  C   C1080     1.0  0.39527  0.87519  0.55021  1.0000
  N   N270      1.0  0.34822  0.87513  0.62501  1.0000
  C   C1081     1.0  0.33598  0.87505  0.60930  1.0000
  N   N271      1.0  0.34076  0.87499  0.59077  1.0000
  C   C1082     1.0  0.31705  0.87506  0.61533  1.0000
  C   C1083     1.0  0.31705  0.87514  0.63467  1.0000
  C   C1084     1.0  0.33598  0.87520  0.64072  1.0000
  C   C1085     1.0  0.30020  0.87514  0.64526  1.0000
  C   C1086     1.0  0.28284  0.87506  0.63510  1.0000
  C   C1087     1.0  0.28285  0.87501  0.61488  1.0000
  C   C1088     1.0  0.30022  0.87500  0.60473  1.0000
  N   N272      1.0  0.34076  0.87529  0.65925  1.0000
  H   H265      1.0  0.34108  0.87529  0.69958  1.0000
  O   O265      1.0  0.35646  0.87522  0.73182  1.0000
  O   O266      1.0  0.39349  0.87512  0.73182  1.0000
  H   H266      1.0  0.40890  0.87507  0.69958  1.0000
  H   H267      1.0  0.44958  0.87499  0.65891  1.0000
  O   O267      1.0  0.48182  0.87500  0.64350  1.0000
  O   O268      1.0  0.48180  0.87499  0.60647  1.0000
  H   H268      1.0  0.44956  0.87509  0.59109  1.0000
  H   H269      1.0  0.34110  0.87501  0.55044  1.0000
  O   O269      1.0  0.35649  0.87512  0.51820  1.0000
  O   O270      1.0  0.39352  0.87521  0.51820  1.0000
  H   H270      1.0  0.40891  0.87523  0.55043  1.0000
  H   H271      1.0  0.30042  0.87519  0.65891  1.0000
  O   O271      1.0  0.26819  0.87503  0.64350  1.0000
  O   O272      1.0  0.26820  0.87497  0.60647  1.0000
  H   H272      1.0  0.30045  0.87495  0.59109  1.0000
  Ni  Ni34      1.0  0.37500  0.87517  0.62501  1.0000
  C   C1089     1.0  0.12484  0.35473  0.69984  1.0000
  C   C1090     1.0  0.12489  0.36488  0.71720  1.0000
  C   C1091     1.0  0.12495  0.38510  0.71720  1.0000
  C   C1092     1.0  0.12498  0.39526  0.69984  1.0000
  C   C1093     1.0  0.12494  0.38467  0.68299  1.0000
  C   C1094     1.0  0.12486  0.36533  0.68299  1.0000
  C   C1095     1.0  0.12484  0.35929  0.66407  1.0000
  N   N273      1.0  0.12490  0.37500  0.65183  1.0000
  C   C1096     1.0  0.12496  0.39071  0.66407  1.0000
  N   N274      1.0  0.12505  0.40925  0.65928  1.0000
  C   C1097     1.0  0.12504  0.41403  0.64075  1.0000
  N   N275      1.0  0.12498  0.40179  0.62504  1.0000
  C   C1098     1.0  0.12495  0.41403  0.60933  1.0000
  C   C1099     1.0  0.12501  0.43296  0.61537  1.0000
  C   C1100     1.0  0.12505  0.43296  0.63470  1.0000
  N   N276      1.0  0.12494  0.37501  0.59826  1.0000
  C   C1101     1.0  0.12489  0.39072  0.58602  1.0000
  N   N277      1.0  0.12486  0.40925  0.59080  1.0000
  C   C1102     1.0  0.12493  0.38467  0.56709  1.0000
  C   C1103     1.0  0.12500  0.36534  0.56709  1.0000
  C   C1104     1.0  0.12502  0.35930  0.58602  1.0000
  C   C1105     1.0  0.12508  0.44981  0.64529  1.0000
  C   C1106     1.0  0.12508  0.46716  0.63513  1.0000
  C   C1107     1.0  0.12506  0.46716  0.61491  1.0000
  C   C1108     1.0  0.12501  0.44979  0.60476  1.0000
  C   C1109     1.0  0.12503  0.35474  0.55025  1.0000
  C   C1110     1.0  0.12498  0.36489  0.53289  1.0000
  C   C1111     1.0  0.12492  0.38511  0.53289  1.0000
  C   C1112     1.0  0.12489  0.39527  0.55025  1.0000
  N   N278      1.0  0.12496  0.34823  0.62504  1.0000
  C   C1113     1.0  0.12504  0.33598  0.60933  1.0000
  N   N279      1.0  0.12510  0.34077  0.59080  1.0000
  C   C1114     1.0  0.12504  0.31706  0.61537  1.0000
  C   C1115     1.0  0.12495  0.31705  0.63471  1.0000
  C   C1116     1.0  0.12489  0.33598  0.64075  1.0000
  C   C1117     1.0  0.12495  0.30021  0.64530  1.0000
  C   C1118     1.0  0.12503  0.28285  0.63514  1.0000
  C   C1119     1.0  0.12509  0.28286  0.61492  1.0000
  C   C1120     1.0  0.12509  0.30022  0.60477  1.0000
  N   N280      1.0  0.12480  0.34076  0.65928  1.0000
  H   H273      1.0  0.12480  0.34109  0.69961  1.0000
  O   O273      1.0  0.12487  0.35648  0.73185  1.0000
  O   O274      1.0  0.12497  0.39350  0.73186  1.0000
  H   H274      1.0  0.12502  0.40891  0.69961  1.0000
  H   H275      1.0  0.12510  0.44959  0.65894  1.0000
  O   O275      1.0  0.12508  0.48182  0.64352  1.0000
  O   O276      1.0  0.12509  0.48181  0.60650  1.0000
  H   H276      1.0  0.12500  0.44956  0.59112  1.0000
  H   H277      1.0  0.12508  0.34110  0.55048  1.0000
  O   O277      1.0  0.12498  0.35649  0.51824  1.0000
  O   O278      1.0  0.12488  0.39351  0.51823  1.0000
  H   H278      1.0  0.12486  0.40891  0.55046  1.0000
  H   H279      1.0  0.12491  0.30043  0.65894  1.0000
  O   O279      1.0  0.12506  0.26819  0.64354  1.0000
  O   O280      1.0  0.12513  0.26821  0.60651  1.0000
  H   H280      1.0  0.12514  0.30045  0.59112  1.0000
  Ni  Ni35      1.0  0.12492  0.37501  0.62504  1.0000
  C   C1121     1.0  0.60472  0.12520  0.69979  1.0000
  C   C1122     1.0  0.61488  0.12516  0.71716  1.0000
  C   C1123     1.0  0.63509  0.12509  0.71716  1.0000
  C   C1124     1.0  0.64526  0.12506  0.69980  1.0000
  C   C1125     1.0  0.63466  0.12509  0.68295  1.0000
  C   C1126     1.0  0.61533  0.12517  0.68295  1.0000
  C   C1127     1.0  0.60929  0.12519  0.66402  1.0000
  N   N281      1.0  0.62500  0.12513  0.65178  1.0000
  C   C1128     1.0  0.64071  0.12507  0.66403  1.0000
  N   N282      1.0  0.65924  0.12498  0.65925  1.0000
  C   C1129     1.0  0.66403  0.12499  0.64071  1.0000
  N   N283      1.0  0.65179  0.12505  0.62500  1.0000
  C   C1130     1.0  0.66403  0.12507  0.60929  1.0000
  C   C1131     1.0  0.68296  0.12501  0.61533  1.0000
  C   C1132     1.0  0.68296  0.12497  0.63467  1.0000
  N   N284      1.0  0.62501  0.12509  0.59822  1.0000
  C   C1133     1.0  0.64072  0.12514  0.58598  1.0000
  N   N285      1.0  0.65925  0.12516  0.59076  1.0000
  C   C1134     1.0  0.63468  0.12510  0.56705  1.0000
  C   C1135     1.0  0.61534  0.12503  0.56705  1.0000
  C   C1136     1.0  0.60930  0.12501  0.58598  1.0000
  C   C1137     1.0  0.69981  0.12494  0.64526  1.0000
  C   C1138     1.0  0.71716  0.12494  0.63509  1.0000
  C   C1139     1.0  0.71716  0.12495  0.61488  1.0000
  C   C1140     1.0  0.69979  0.12500  0.60472  1.0000
  C   C1141     1.0  0.60475  0.12500  0.55021  1.0000
  C   C1142     1.0  0.61490  0.12505  0.53285  1.0000
  C   C1143     1.0  0.63512  0.12511  0.53285  1.0000
  C   C1144     1.0  0.64528  0.12513  0.55021  1.0000
  N   N286      1.0  0.59823  0.12508  0.62500  1.0000
  C   C1145     1.0  0.58599  0.12500  0.60929  1.0000
  N   N287      1.0  0.59077  0.12493  0.59076  1.0000
  C   C1146     1.0  0.56706  0.12501  0.61532  1.0000
  C   C1147     1.0  0.56705  0.12509  0.63466  1.0000
  C   C1148     1.0  0.58598  0.12515  0.64071  1.0000
  C   C1149     1.0  0.55021  0.12510  0.64525  1.0000
  C   C1150     1.0  0.53285  0.12502  0.63509  1.0000
  C   C1151     1.0  0.53286  0.12496  0.61487  1.0000
  C   C1152     1.0  0.55022  0.12495  0.60472  1.0000
  N   N288      1.0  0.59076  0.12524  0.65924  1.0000
  H   H281      1.0  0.59108  0.12524  0.69957  1.0000
  O   O281      1.0  0.60647  0.12517  0.73181  1.0000
  O   O282      1.0  0.64349  0.12507  0.73182  1.0000
  H   H282      1.0  0.65890  0.12501  0.69958  1.0000
  H   H283      1.0  0.69959  0.12492  0.65890  1.0000
  O   O283      1.0  0.73182  0.12493  0.64349  1.0000
  O   O284      1.0  0.73181  0.12491  0.60646  1.0000
  H   H284      1.0  0.69957  0.12502  0.59108  1.0000
  H   H285      1.0  0.59110  0.12495  0.55043  1.0000
  O   O285      1.0  0.60650  0.12505  0.51819  1.0000
  O   O286      1.0  0.64353  0.12514  0.51819  1.0000
  H   H286      1.0  0.65892  0.12516  0.55043  1.0000
  H   H287      1.0  0.55042  0.12514  0.65890  1.0000
  O   O287      1.0  0.51819  0.12499  0.64349  1.0000
  O   O288      1.0  0.51821  0.12492  0.60646  1.0000
  H   H288      1.0  0.55046  0.12491  0.59108  1.0000
  Ni  Ni36      1.0  0.62501  0.12512  0.62500  1.0000
  C   C1153     1.0  0.87483  0.35470  0.44983  1.0000
  C   C1154     1.0  0.87488  0.36486  0.46720  1.0000
  C   C1155     1.0  0.87493  0.38508  0.46720  1.0000
  C   C1156     1.0  0.87496  0.39524  0.44984  1.0000
  C   C1157     1.0  0.87492  0.38465  0.43300  1.0000
  C   C1158     1.0  0.87485  0.36531  0.43299  1.0000
  C   C1159     1.0  0.87483  0.35927  0.41407  1.0000
  N   N289      1.0  0.87488  0.37499  0.40183  1.0000
  C   C1160     1.0  0.87494  0.39070  0.41407  1.0000
  N   N290      1.0  0.87502  0.40923  0.40929  1.0000
  C   C1161     1.0  0.87501  0.41401  0.39076  1.0000
  N   N291      1.0  0.87495  0.40177  0.37505  1.0000
  C   C1162     1.0  0.87492  0.41402  0.35933  1.0000
  C   C1163     1.0  0.87498  0.43294  0.36537  1.0000
  C   C1164     1.0  0.87502  0.43294  0.38471  1.0000
  N   N292      1.0  0.87491  0.37500  0.34826  1.0000
  C   C1165     1.0  0.87486  0.39071  0.33602  1.0000
  N   N293      1.0  0.87483  0.40924  0.34080  1.0000
  C   C1166     1.0  0.87489  0.38467  0.31709  1.0000
  C   C1167     1.0  0.87497  0.36533  0.31709  1.0000
  C   C1168     1.0  0.87499  0.35929  0.33602  1.0000
  C   C1169     1.0  0.87505  0.44979  0.39530  1.0000
  C   C1170     1.0  0.87505  0.46715  0.38514  1.0000
  C   C1171     1.0  0.87503  0.46714  0.36492  1.0000
  C   C1172     1.0  0.87498  0.44978  0.35477  1.0000
  C   C1173     1.0  0.87500  0.35473  0.30025  1.0000
  C   C1174     1.0  0.87494  0.36489  0.28289  1.0000
  C   C1175     1.0  0.87488  0.38511  0.28289  1.0000
  C   C1176     1.0  0.87486  0.39527  0.30025  1.0000
  N   N294      1.0  0.87494  0.34821  0.37504  1.0000
  C   C1177     1.0  0.87502  0.33597  0.35933  1.0000
  N   N295      1.0  0.87508  0.34075  0.34080  1.0000
  C   C1178     1.0  0.87502  0.31704  0.36537  1.0000
  C   C1179     1.0  0.87493  0.31704  0.38470  1.0000
  C   C1180     1.0  0.87487  0.33596  0.39075  1.0000
  C   C1181     1.0  0.87494  0.30019  0.39530  1.0000
  C   C1182     1.0  0.87502  0.28283  0.38513  1.0000
  C   C1183     1.0  0.87507  0.28284  0.36491  1.0000
  C   C1184     1.0  0.87507  0.30021  0.35476  1.0000
  N   N296      1.0  0.87479  0.34074  0.40928  1.0000
  H   H289      1.0  0.87479  0.34106  0.44961  1.0000
  O   O289      1.0  0.87486  0.35645  0.48185  1.0000
  O   O290      1.0  0.87496  0.39348  0.48186  1.0000
  H   H290      1.0  0.87501  0.40888  0.44962  1.0000
  H   H291      1.0  0.87507  0.44957  0.40895  1.0000
  O   O291      1.0  0.87505  0.48180  0.39353  1.0000
  O   O292      1.0  0.87506  0.48179  0.35651  1.0000
  H   H292      1.0  0.87496  0.44955  0.34113  1.0000
  H   H293      1.0  0.87505  0.34109  0.30047  1.0000
  O   O293      1.0  0.87494  0.35649  0.26824  1.0000
  O   O294      1.0  0.87484  0.39351  0.26824  1.0000
  H   H294      1.0  0.87482  0.40891  0.30047  1.0000
  H   H295      1.0  0.87489  0.30041  0.40894  1.0000
  O   O295      1.0  0.87505  0.26818  0.39353  1.0000
  O   O296      1.0  0.87511  0.26819  0.35650  1.0000
  H   H296      1.0  0.87512  0.30044  0.34112  1.0000
  Ni  Ni37      1.0  0.87489  0.37499  0.37505  1.0000
  C   C1185     1.0  0.60474  0.87513  0.44980  1.0000
  C   C1186     1.0  0.61489  0.87509  0.46716  1.0000
  C   C1187     1.0  0.63511  0.87502  0.46716  1.0000
  C   C1188     1.0  0.64527  0.87499  0.44980  1.0000
  C   C1189     1.0  0.63468  0.87503  0.43296  1.0000
  C   C1190     1.0  0.61534  0.87511  0.43296  1.0000
  C   C1191     1.0  0.60930  0.87513  0.41403  1.0000
  N   N297      1.0  0.62501  0.87506  0.40179  1.0000
  C   C1192     1.0  0.64072  0.87500  0.41403  1.0000
  N   N298      1.0  0.65925  0.87492  0.40924  1.0000
  C   C1193     1.0  0.66404  0.87493  0.39071  1.0000
  N   N299      1.0  0.65179  0.87499  0.37500  1.0000
  C   C1194     1.0  0.66403  0.87502  0.35929  1.0000
  C   C1195     1.0  0.68296  0.87496  0.36533  1.0000
  C   C1196     1.0  0.68296  0.87492  0.38466  1.0000
  N   N300      1.0  0.62501  0.87503  0.34822  1.0000
  C   C1197     1.0  0.64072  0.87508  0.33598  1.0000
  N   N301      1.0  0.65925  0.87510  0.34076  1.0000
  C   C1198     1.0  0.63468  0.87504  0.31705  1.0000
  C   C1199     1.0  0.61534  0.87496  0.31705  1.0000
  C   C1200     1.0  0.60930  0.87495  0.33598  1.0000
  C   C1201     1.0  0.69981  0.87489  0.39525  1.0000
  C   C1202     1.0  0.71717  0.87489  0.38508  1.0000
  C   C1203     1.0  0.71716  0.87490  0.36487  1.0000
  C   C1204     1.0  0.69979  0.87495  0.35472  1.0000
  C   C1205     1.0  0.60474  0.87493  0.30021  1.0000
  C   C1206     1.0  0.61489  0.87499  0.28285  1.0000
  C   C1207     1.0  0.63511  0.87505  0.28285  1.0000
  C   C1208     1.0  0.64527  0.87507  0.30021  1.0000
  N   N302      1.0  0.59823  0.87501  0.37501  1.0000
  C   C1209     1.0  0.58599  0.87493  0.35930  1.0000
  N   N303      1.0  0.59077  0.87486  0.34077  1.0000
  C   C1210     1.0  0.56706  0.87493  0.36534  1.0000
  C   C1211     1.0  0.56706  0.87502  0.38467  1.0000
  C   C1212     1.0  0.58599  0.87508  0.39072  1.0000
  C   C1213     1.0  0.55021  0.87502  0.39527  1.0000
  C   C1214     1.0  0.53285  0.87494  0.38510  1.0000
  C   C1215     1.0  0.53286  0.87488  0.36489  1.0000
  C   C1216     1.0  0.55023  0.87487  0.35473  1.0000
  N   N304      1.0  0.59077  0.87517  0.40925  1.0000
  H   H297      1.0  0.59109  0.87517  0.44957  1.0000
  O   O297      1.0  0.60649  0.87510  0.48181  1.0000
  O   O298      1.0  0.64351  0.87500  0.48182  1.0000
  H   H298      1.0  0.65891  0.87495  0.44957  1.0000
  H   H299      1.0  0.69960  0.87487  0.40889  1.0000
  O   O299      1.0  0.73183  0.87488  0.39348  1.0000
  O   O300      1.0  0.73181  0.87487  0.35645  1.0000
  H   H300      1.0  0.69957  0.87497  0.34108  1.0000
  H   H301      1.0  0.59110  0.87489  0.30044  1.0000
  O   O301      1.0  0.60649  0.87499  0.26820  1.0000
  O   O302      1.0  0.64351  0.87508  0.26819  1.0000
  H   H302      1.0  0.65891  0.87511  0.30042  1.0000
  H   H303      1.0  0.55043  0.87506  0.40891  1.0000
  O   O303      1.0  0.51820  0.87491  0.39350  1.0000
  O   O304      1.0  0.51821  0.87484  0.35648  1.0000
  H   H304      1.0  0.55045  0.87483  0.34109  1.0000
  Ni  Ni38      1.0  0.62501  0.87505  0.37501  1.0000
  C   C1217     1.0  0.12479  0.60472  0.44980  1.0000
  C   C1218     1.0  0.12483  0.61488  0.46717  1.0000
  C   C1219     1.0  0.12489  0.63510  0.46717  1.0000
  C   C1220     1.0  0.12492  0.64526  0.44980  1.0000
  C   C1221     1.0  0.12489  0.63466  0.43296  1.0000
  C   C1222     1.0  0.12481  0.61532  0.43296  1.0000
  C   C1223     1.0  0.12479  0.60928  0.41404  1.0000
  N   N305      1.0  0.12485  0.62499  0.40179  1.0000
  C   C1224     1.0  0.12491  0.64070  0.41403  1.0000
  N   N306      1.0  0.12499  0.65923  0.40925  1.0000
  C   C1225     1.0  0.12498  0.66402  0.39071  1.0000
  N   N307      1.0  0.12492  0.65177  0.37501  1.0000
  C   C1226     1.0  0.12489  0.66401  0.35929  1.0000
  C   C1227     1.0  0.12495  0.68294  0.36533  1.0000
  C   C1228     1.0  0.12500  0.68294  0.38466  1.0000
  N   N308      1.0  0.12489  0.62499  0.34823  1.0000
  C   C1229     1.0  0.12483  0.64070  0.33598  1.0000
  N   N309      1.0  0.12481  0.65923  0.34076  1.0000
  C   C1230     1.0  0.12487  0.63465  0.31705  1.0000
  C   C1231     1.0  0.12494  0.61532  0.31706  1.0000
  C   C1232     1.0  0.12496  0.60928  0.33599  1.0000
  C   C1233     1.0  0.12502  0.69979  0.39525  1.0000
  C   C1234     1.0  0.12502  0.71715  0.38508  1.0000
  C   C1235     1.0  0.12501  0.71714  0.36486  1.0000
  C   C1236     1.0  0.12496  0.69977  0.35472  1.0000
  C   C1237     1.0  0.12498  0.60471  0.30022  1.0000
  C   C1238     1.0  0.12492  0.61487  0.28286  1.0000
  C   C1239     1.0  0.12486  0.63509  0.28285  1.0000
  C   C1240     1.0  0.12484  0.64525  0.30021  1.0000
  N   N310      1.0  0.12490  0.59821  0.37501  1.0000
  C   C1241     1.0  0.12499  0.58597  0.35930  1.0000
  N   N311      1.0  0.12505  0.59075  0.34077  1.0000
  C   C1242     1.0  0.12498  0.56704  0.36535  1.0000
  C   C1243     1.0  0.12490  0.56704  0.38468  1.0000
  C   C1244     1.0  0.12484  0.58597  0.39072  1.0000
  C   C1245     1.0  0.12490  0.55019  0.39528  1.0000
  C   C1246     1.0  0.12498  0.53283  0.38512  1.0000
  C   C1247     1.0  0.12503  0.53284  0.36490  1.0000
  C   C1248     1.0  0.12504  0.55020  0.35474  1.0000
  N   N312      1.0  0.12475  0.59075  0.40926  1.0000
  H   H305      1.0  0.12475  0.59108  0.44958  1.0000
  O   O305      1.0  0.12482  0.60647  0.48182  1.0000
  O   O306      1.0  0.12492  0.64350  0.48182  1.0000
  H   H306      1.0  0.12497  0.65890  0.44958  1.0000
  H   H307      1.0  0.12504  0.69958  0.40889  1.0000
  O   O307      1.0  0.12503  0.73181  0.39348  1.0000
  O   O308      1.0  0.12504  0.73179  0.35645  1.0000
  H   H308      1.0  0.12494  0.69954  0.34108  1.0000
  H   H309      1.0  0.12502  0.59107  0.30045  1.0000
  O   O309      1.0  0.12492  0.60646  0.26821  1.0000
  O   O310      1.0  0.12483  0.64349  0.26820  1.0000
  H   H310      1.0  0.12480  0.65889  0.30043  1.0000
  H   H311      1.0  0.12485  0.55041  0.40892  1.0000
  O   O311      1.0  0.12501  0.51818  0.39352  1.0000
  O   O312      1.0  0.12507  0.51819  0.35649  1.0000
  H   H312      1.0  0.12508  0.55043  0.34110  1.0000
  Ni  Ni39      1.0  0.12486  0.62499  0.37501  1.0000
  C   C1249     1.0  0.35474  0.12519  0.44980  1.0000
  C   C1250     1.0  0.36490  0.12515  0.46717  1.0000
  C   C1251     1.0  0.38512  0.12508  0.46717  1.0000
  C   C1252     1.0  0.39528  0.12505  0.44980  1.0000
  C   C1253     1.0  0.38468  0.12508  0.43296  1.0000
  C   C1254     1.0  0.36535  0.12516  0.43296  1.0000
  C   C1255     1.0  0.35931  0.12518  0.41404  1.0000
  N   N313      1.0  0.37502  0.12511  0.40179  1.0000
  C   C1256     1.0  0.39073  0.12505  0.41403  1.0000
  N   N314      1.0  0.40926  0.12497  0.40925  1.0000
  C   C1257     1.0  0.41404  0.12497  0.39072  1.0000
  N   N315      1.0  0.40180  0.12503  0.37501  1.0000
  C   C1258     1.0  0.41404  0.12505  0.35929  1.0000
  C   C1259     1.0  0.43297  0.12499  0.36533  1.0000
  C   C1260     1.0  0.43297  0.12495  0.38467  1.0000
  N   N316      1.0  0.37502  0.12507  0.34823  1.0000
  C   C1261     1.0  0.39073  0.12511  0.33598  1.0000
  N   N317      1.0  0.40926  0.12514  0.34076  1.0000
  C   C1262     1.0  0.38468  0.12507  0.31705  1.0000
  C   C1263     1.0  0.36535  0.12500  0.31706  1.0000
  C   C1264     1.0  0.35930  0.12499  0.33599  1.0000
  C   C1265     1.0  0.44982  0.12493  0.39526  1.0000
  C   C1266     1.0  0.46718  0.12492  0.38509  1.0000
  C   C1267     1.0  0.46717  0.12493  0.36487  1.0000
  C   C1268     1.0  0.44980  0.12498  0.35472  1.0000
  C   C1269     1.0  0.35474  0.12497  0.30022  1.0000
  C   C1270     1.0  0.36490  0.12502  0.28286  1.0000
  C   C1271     1.0  0.38512  0.12507  0.28285  1.0000
  C   C1272     1.0  0.39528  0.12510  0.30021  1.0000
  N   N318      1.0  0.34824  0.12506  0.37501  1.0000
  C   C1273     1.0  0.33600  0.12497  0.35930  1.0000
  N   N319      1.0  0.34078  0.12491  0.34077  1.0000
  C   C1274     1.0  0.31707  0.12498  0.36534  1.0000
  C   C1275     1.0  0.31707  0.12507  0.38468  1.0000
  C   C1276     1.0  0.33599  0.12513  0.39072  1.0000
  C   C1277     1.0  0.30022  0.12508  0.39528  1.0000
  C   C1278     1.0  0.28286  0.12499  0.38511  1.0000
  C   C1279     1.0  0.28287  0.12494  0.36489  1.0000
  C   C1280     1.0  0.30023  0.12493  0.35474  1.0000
  N   N320      1.0  0.34078  0.12522  0.40925  1.0000
  H   H313      1.0  0.34110  0.12523  0.44958  1.0000
  O   O313      1.0  0.35650  0.12517  0.48182  1.0000
  O   O314      1.0  0.39352  0.12506  0.48182  1.0000
  H   H314      1.0  0.40892  0.12500  0.44958  1.0000
  H   H315      1.0  0.44961  0.12491  0.40890  1.0000
  O   O315      1.0  0.48184  0.12492  0.39348  1.0000
  O   O316      1.0  0.48182  0.12490  0.35646  1.0000
  H   H316      1.0  0.44957  0.12500  0.34108  1.0000
  H   H317      1.0  0.34110  0.12492  0.30045  1.0000
  O   O317      1.0  0.35649  0.12502  0.26821  1.0000
  O   O318      1.0  0.39352  0.12510  0.26820  1.0000
  H   H318      1.0  0.40892  0.12514  0.30043  1.0000
  H   H319      1.0  0.30044  0.12512  0.40892  1.0000
  O   O319      1.0  0.26821  0.12497  0.39351  1.0000
  O   O320      1.0  0.26822  0.12489  0.35649  1.0000
  H   H320      1.0  0.30046  0.12488  0.34110  1.0000
  Ni  Ni40      1.0  0.37502  0.12510  0.37501  1.0000
  C   C1281     1.0  0.60473  0.87519  0.69979  1.0000
  C   C1282     1.0  0.61489  0.87514  0.71716  1.0000
  C   C1283     1.0  0.63511  0.87508  0.71716  1.0000
  C   C1284     1.0  0.64527  0.87504  0.69979  1.0000
  C   C1285     1.0  0.63467  0.87508  0.68295  1.0000
  C   C1286     1.0  0.61534  0.87516  0.68295  1.0000
  C   C1287     1.0  0.60929  0.87518  0.66403  1.0000
  N   N321      1.0  0.62501  0.87512  0.65178  1.0000
  C   C1288     1.0  0.64072  0.87506  0.66402  1.0000
  N   N322      1.0  0.65925  0.87497  0.65924  1.0000
  C   C1289     1.0  0.66403  0.87498  0.64071  1.0000
  N   N323      1.0  0.65179  0.87504  0.62500  1.0000
  C   C1290     1.0  0.66403  0.87506  0.60928  1.0000
  C   C1291     1.0  0.68295  0.87500  0.61532  1.0000
  C   C1292     1.0  0.68296  0.87496  0.63466  1.0000
  N   N324      1.0  0.62500  0.87508  0.59822  1.0000
  C   C1293     1.0  0.64071  0.87513  0.58597  1.0000
  N   N325      1.0  0.65925  0.87515  0.59075  1.0000
  C   C1294     1.0  0.63467  0.87509  0.56704  1.0000
  C   C1295     1.0  0.61533  0.87502  0.56705  1.0000
  C   C1296     1.0  0.60929  0.87500  0.58598  1.0000
  C   C1297     1.0  0.69981  0.87493  0.64524  1.0000
  C   C1298     1.0  0.71717  0.87493  0.63507  1.0000
  C   C1299     1.0  0.71716  0.87494  0.61486  1.0000
  C   C1300     1.0  0.69979  0.87499  0.60471  1.0000
  C   C1301     1.0  0.60473  0.87499  0.55021  1.0000
  C   C1302     1.0  0.61489  0.87504  0.53285  1.0000
  C   C1303     1.0  0.63510  0.87510  0.53284  1.0000
  C   C1304     1.0  0.64526  0.87512  0.55020  1.0000
  N   N326      1.0  0.59823  0.87507  0.62500  1.0000
  C   C1305     1.0  0.58598  0.87499  0.60929  1.0000
  N   N327      1.0  0.59076  0.87492  0.59076  1.0000
  C   C1306     1.0  0.56706  0.87499  0.61533  1.0000
  C   C1307     1.0  0.56705  0.87508  0.63467  1.0000
  C   C1308     1.0  0.58598  0.87514  0.64071  1.0000
  C   C1309     1.0  0.55021  0.87508  0.64527  1.0000
  C   C1310     1.0  0.53285  0.87501  0.63510  1.0000
  C   C1311     1.0  0.53285  0.87495  0.61488  1.0000
  C   C1312     1.0  0.55022  0.87494  0.60473  1.0000
  N   N328      1.0  0.59077  0.87523  0.65924  1.0000
  H   H321      1.0  0.59109  0.87523  0.69957  1.0000
  O   O321      1.0  0.60649  0.87516  0.73181  1.0000
  O   O322      1.0  0.64351  0.87505  0.73181  1.0000
  H   H322      1.0  0.65891  0.87500  0.69957  1.0000
  H   H323      1.0  0.69959  0.87491  0.65889  1.0000
  O   O323      1.0  0.73182  0.87492  0.64347  1.0000
  O   O324      1.0  0.73180  0.87491  0.60644  1.0000
  H   H324      1.0  0.69956  0.87501  0.59107  1.0000
  H   H325      1.0  0.59109  0.87494  0.55044  1.0000
  O   O325      1.0  0.60648  0.87504  0.51820  1.0000
  O   O326      1.0  0.64350  0.87513  0.51819  1.0000
  H   H326      1.0  0.65891  0.87515  0.55042  1.0000
  H   H327      1.0  0.55043  0.87513  0.65891  1.0000
  O   O327      1.0  0.51819  0.87498  0.64350  1.0000
  O   O328      1.0  0.51820  0.87491  0.60648  1.0000
  H   H328      1.0  0.55045  0.87489  0.59109  1.0000
  Ni  Ni41      1.0  0.62500  0.87511  0.62500  1.0000
  C   C1313     1.0  0.60474  0.12512  0.44979  1.0000
  C   C1314     1.0  0.61490  0.12508  0.46715  1.0000
  C   C1315     1.0  0.63512  0.12501  0.46715  1.0000
  C   C1316     1.0  0.64528  0.12498  0.44979  1.0000
  C   C1317     1.0  0.63468  0.12502  0.43295  1.0000
  C   C1318     1.0  0.61535  0.12510  0.43295  1.0000
  C   C1319     1.0  0.60931  0.12512  0.41402  1.0000
  N   N329      1.0  0.62502  0.12505  0.40178  1.0000
  C   C1320     1.0  0.64073  0.12499  0.41402  1.0000
  N   N330      1.0  0.65926  0.12491  0.40923  1.0000
  C   C1321     1.0  0.66405  0.12492  0.39070  1.0000
  N   N331      1.0  0.65180  0.12498  0.37499  1.0000
  C   C1322     1.0  0.66404  0.12500  0.35928  1.0000
  C   C1323     1.0  0.68297  0.12495  0.36532  1.0000
  C   C1324     1.0  0.68297  0.12490  0.38465  1.0000
  N   N332      1.0  0.62502  0.12501  0.34821  1.0000
  C   C1325     1.0  0.64073  0.12506  0.33597  1.0000
  N   N333      1.0  0.65926  0.12509  0.34075  1.0000
  C   C1326     1.0  0.63469  0.12503  0.31704  1.0000
  C   C1327     1.0  0.61535  0.12495  0.31704  1.0000
  C   C1328     1.0  0.60931  0.12494  0.33597  1.0000
  C   C1329     1.0  0.69982  0.12487  0.39524  1.0000
  C   C1330     1.0  0.71718  0.12487  0.38507  1.0000
  C   C1331     1.0  0.71717  0.12489  0.36486  1.0000
  C   C1332     1.0  0.69980  0.12494  0.35471  1.0000
  C   C1333     1.0  0.60475  0.12492  0.30020  1.0000
  C   C1334     1.0  0.61490  0.12497  0.28284  1.0000
  C   C1335     1.0  0.63512  0.12503  0.28284  1.0000
  C   C1336     1.0  0.64528  0.12506  0.30020  1.0000
  N   N334      1.0  0.59824  0.12500  0.37500  1.0000
  C   C1337     1.0  0.58600  0.12492  0.35928  1.0000
  N   N335      1.0  0.59078  0.12485  0.34075  1.0000
  C   C1338     1.0  0.56707  0.12492  0.36532  1.0000
  C   C1339     1.0  0.56707  0.12501  0.38466  1.0000
  C   C1340     1.0  0.58599  0.12507  0.39071  1.0000
  C   C1341     1.0  0.55022  0.12501  0.39526  1.0000
  C   C1342     1.0  0.53286  0.12493  0.38509  1.0000
  C   C1343     1.0  0.53287  0.12487  0.36487  1.0000
  C   C1344     1.0  0.55023  0.12487  0.35472  1.0000
  N   N336      1.0  0.59078  0.12516  0.40924  1.0000
  H   H329      1.0  0.59110  0.12516  0.44956  1.0000
  O   O329      1.0  0.60649  0.12509  0.48180  1.0000
  O   O330      1.0  0.64352  0.12499  0.48181  1.0000
  H   H330      1.0  0.65892  0.12494  0.44956  1.0000
  H   H331      1.0  0.69961  0.12486  0.40888  1.0000
  O   O331      1.0  0.73184  0.12487  0.39347  1.0000
  O   O332      1.0  0.73182  0.12485  0.35644  1.0000
  H   H332      1.0  0.69957  0.12495  0.34107  1.0000
  H   H333      1.0  0.59111  0.12488  0.30043  1.0000
  O   O333      1.0  0.60650  0.12498  0.26819  1.0000
  O   O334      1.0  0.64352  0.12507  0.26818  1.0000
  H   H334      1.0  0.65892  0.12509  0.30041  1.0000
  H   H335      1.0  0.55044  0.12506  0.40890  1.0000
  O   O335      1.0  0.51821  0.12490  0.39349  1.0000
  O   O336      1.0  0.51822  0.12483  0.35647  1.0000
  H   H336      1.0  0.55046  0.12482  0.34108  1.0000
  Ni  Ni42      1.0  0.62502  0.12504  0.37500  1.0000
  C   C1345     1.0  0.87479  0.60471  0.44981  1.0000
  C   C1346     1.0  0.87483  0.61487  0.46717  1.0000
  C   C1347     1.0  0.87489  0.63509  0.46717  1.0000
  C   C1348     1.0  0.87492  0.64525  0.44981  1.0000
  C   C1349     1.0  0.87489  0.63465  0.43297  1.0000
  C   C1350     1.0  0.87481  0.61531  0.43297  1.0000
  C   C1351     1.0  0.87479  0.60927  0.41404  1.0000
  N   N337      1.0  0.87485  0.62498  0.40180  1.0000
  C   C1352     1.0  0.87491  0.64069  0.41404  1.0000
  N   N338      1.0  0.87499  0.65923  0.40926  1.0000
  C   C1353     1.0  0.87498  0.66401  0.39072  1.0000
  N   N339      1.0  0.87492  0.65176  0.37501  1.0000
  C   C1354     1.0  0.87490  0.66400  0.35930  1.0000
  C   C1355     1.0  0.87495  0.68293  0.36534  1.0000
  C   C1356     1.0  0.87500  0.68294  0.38467  1.0000
  N   N340      1.0  0.87488  0.62498  0.34824  1.0000
  C   C1357     1.0  0.87483  0.64069  0.33599  1.0000
  N   N341      1.0  0.87481  0.65922  0.34077  1.0000
  C   C1358     1.0  0.87487  0.63465  0.31706  1.0000
  C   C1359     1.0  0.87494  0.61531  0.31707  1.0000
  C   C1360     1.0  0.87496  0.60927  0.33599  1.0000
  C   C1361     1.0  0.87503  0.69978  0.39526  1.0000
  C   C1362     1.0  0.87503  0.71714  0.38509  1.0000
  C   C1363     1.0  0.87501  0.71713  0.36487  1.0000
  C   C1364     1.0  0.87496  0.69977  0.35473  1.0000
  C   C1365     1.0  0.87497  0.60471  0.30023  1.0000
  C   C1366     1.0  0.87492  0.61486  0.28286  1.0000
  C   C1367     1.0  0.87486  0.63508  0.28286  1.0000
  C   C1368     1.0  0.87484  0.64524  0.30022  1.0000
  N   N342      1.0  0.87490  0.59820  0.37502  1.0000
  C   C1369     1.0  0.87498  0.58596  0.35931  1.0000
  N   N343      1.0  0.87504  0.59074  0.34078  1.0000
  C   C1370     1.0  0.87498  0.56703  0.36535  1.0000
  C   C1371     1.0  0.87489  0.56703  0.38469  1.0000
  C   C1372     1.0  0.87483  0.58596  0.39073  1.0000
  C   C1373     1.0  0.87489  0.55019  0.39528  1.0000
  C   C1374     1.0  0.87497  0.53283  0.38512  1.0000
  C   C1375     1.0  0.87502  0.53283  0.36490  1.0000
  C   C1376     1.0  0.87503  0.55020  0.35475  1.0000
  N   N344      1.0  0.87474  0.59074  0.40926  1.0000
  H   H337      1.0  0.87475  0.59107  0.44959  1.0000
  O   O337      1.0  0.87482  0.60646  0.48183  1.0000
  O   O338      1.0  0.87492  0.64349  0.48183  1.0000
  H   H338      1.0  0.87497  0.65889  0.44958  1.0000
  H   H339      1.0  0.87505  0.69957  0.40890  1.0000
  O   O339      1.0  0.87503  0.73180  0.39349  1.0000
  O   O340      1.0  0.87505  0.73178  0.35646  1.0000
  H   H340      1.0  0.87495  0.69954  0.34109  1.0000
  H   H341      1.0  0.87502  0.59107  0.30045  1.0000
  O   O341      1.0  0.87492  0.60646  0.26821  1.0000
  O   O342      1.0  0.87483  0.64348  0.26821  1.0000
  H   H342      1.0  0.87480  0.65888  0.30044  1.0000
  H   H343      1.0  0.87485  0.55040  0.40893  1.0000
  O   O343      1.0  0.87500  0.51817  0.39352  1.0000
  O   O344      1.0  0.87507  0.51818  0.35650  1.0000
  H   H344      1.0  0.87508  0.55043  0.34111  1.0000
  Ni  Ni43      1.0  0.87486  0.62498  0.37502  1.0000
  C   C1377     1.0  0.35473  0.87516  0.44980  1.0000
  C   C1378     1.0  0.36488  0.87512  0.46717  1.0000
  C   C1379     1.0  0.38510  0.87505  0.46717  1.0000
  C   C1380     1.0  0.39527  0.87502  0.44981  1.0000
  C   C1381     1.0  0.38467  0.87505  0.43296  1.0000
  C   C1382     1.0  0.36533  0.87513  0.43296  1.0000
  C   C1383     1.0  0.35930  0.87515  0.41403  1.0000
  N   N345      1.0  0.37501  0.87508  0.40179  1.0000
  C   C1384     1.0  0.39072  0.87503  0.41404  1.0000
  N   N346      1.0  0.40925  0.87494  0.40926  1.0000
  C   C1385     1.0  0.41404  0.87495  0.39073  1.0000
  N   N347      1.0  0.40180  0.87500  0.37501  1.0000
  C   C1386     1.0  0.41404  0.87503  0.35930  1.0000
  C   C1387     1.0  0.43297  0.87497  0.36534  1.0000
  C   C1388     1.0  0.43297  0.87493  0.38468  1.0000
  N   N348      1.0  0.37502  0.87504  0.34823  1.0000
  C   C1389     1.0  0.39073  0.87508  0.33599  1.0000
  N   N349      1.0  0.40926  0.87511  0.34077  1.0000
  C   C1390     1.0  0.38469  0.87504  0.31706  1.0000
  C   C1391     1.0  0.36535  0.87497  0.31706  1.0000
  C   C1392     1.0  0.35931  0.87496  0.33599  1.0000
  C   C1393     1.0  0.44981  0.87490  0.39527  1.0000
  C   C1394     1.0  0.46717  0.87490  0.38510  1.0000
  C   C1395     1.0  0.46717  0.87491  0.36489  1.0000
  C   C1396     1.0  0.44980  0.87496  0.35474  1.0000
  C   C1397     1.0  0.35476  0.87494  0.30022  1.0000
  C   C1398     1.0  0.36491  0.87499  0.28286  1.0000
  C   C1399     1.0  0.38513  0.87505  0.28286  1.0000
  C   C1400     1.0  0.39529  0.87507  0.30022  1.0000
  N   N350      1.0  0.34824  0.87503  0.37501  1.0000
  C   C1401     1.0  0.33600  0.87494  0.35930  1.0000
  N   N351      1.0  0.34078  0.87488  0.34077  1.0000
  C   C1402     1.0  0.31707  0.87495  0.36533  1.0000
  C   C1403     1.0  0.31706  0.87504  0.38467  1.0000
  C   C1404     1.0  0.33599  0.87510  0.39072  1.0000
  C   C1405     1.0  0.30022  0.87504  0.39526  1.0000
  C   C1406     1.0  0.28286  0.87496  0.38510  1.0000
  C   C1407     1.0  0.28287  0.87490  0.36488  1.0000
  C   C1408     1.0  0.30023  0.87489  0.35473  1.0000
  N   N352      1.0  0.34077  0.87519  0.40925  1.0000
  H   H345      1.0  0.34109  0.87520  0.44958  1.0000
  O   O345      1.0  0.35648  0.87514  0.48182  1.0000
  O   O346      1.0  0.39350  0.87503  0.48183  1.0000
  H   H346      1.0  0.40891  0.87497  0.44959  1.0000
  H   H347      1.0  0.44960  0.87488  0.40891  1.0000
  O   O347      1.0  0.48183  0.87489  0.39350  1.0000
  O   O348      1.0  0.48182  0.87487  0.35648  1.0000
  H   H348      1.0  0.44958  0.87497  0.34109  1.0000
  H   H349      1.0  0.34112  0.87489  0.30044  1.0000
  O   O349      1.0  0.35651  0.87499  0.26820  1.0000
  O   O350      1.0  0.39354  0.87508  0.26820  1.0000
  H   H350      1.0  0.40893  0.87511  0.30044  1.0000
  H   H351      1.0  0.30043  0.87509  0.40891  1.0000
  O   O351      1.0  0.26820  0.87494  0.39349  1.0000
  O   O352      1.0  0.26822  0.87486  0.35647  1.0000
  H   H352      1.0  0.30047  0.87484  0.34109  1.0000
  Ni  Ni44      1.0  0.37502  0.87507  0.37501  1.0000
  C   C1409     1.0  0.12486  0.35472  0.44984  1.0000
  C   C1410     1.0  0.12490  0.36488  0.46720  1.0000
  C   C1411     1.0  0.12496  0.38510  0.46720  1.0000
  C   C1412     1.0  0.12499  0.39526  0.44984  1.0000
  C   C1413     1.0  0.12495  0.38466  0.43300  1.0000
  C   C1414     1.0  0.12488  0.36532  0.43300  1.0000
  C   C1415     1.0  0.12486  0.35928  0.41407  1.0000
  N   N353      1.0  0.12492  0.37499  0.40183  1.0000
  C   C1416     1.0  0.12498  0.39071  0.41407  1.0000
  N   N354      1.0  0.12506  0.40924  0.40928  1.0000
  C   C1417     1.0  0.12504  0.41402  0.39075  1.0000
  N   N355      1.0  0.12498  0.40178  0.37504  1.0000
  C   C1418     1.0  0.12496  0.41402  0.35933  1.0000
  C   C1419     1.0  0.12501  0.43294  0.36537  1.0000
  C   C1420     1.0  0.12506  0.43295  0.38470  1.0000
  N   N356      1.0  0.12495  0.37500  0.34826  1.0000
  C   C1421     1.0  0.12490  0.39071  0.33602  1.0000
  N   N357      1.0  0.12487  0.40924  0.34080  1.0000
  C   C1422     1.0  0.12493  0.38466  0.31709  1.0000
  C   C1423     1.0  0.12501  0.36533  0.31709  1.0000
  C   C1424     1.0  0.12503  0.35928  0.33602  1.0000
  C   C1425     1.0  0.12508  0.44980  0.39529  1.0000
  C   C1426     1.0  0.12508  0.46715  0.38512  1.0000
  C   C1427     1.0  0.12507  0.46715  0.36491  1.0000
  C   C1428     1.0  0.12502  0.44978  0.35476  1.0000
  C   C1429     1.0  0.12504  0.35473  0.30025  1.0000
  C   C1430     1.0  0.12498  0.36488  0.28289  1.0000
  C   C1431     1.0  0.12492  0.38510  0.28289  1.0000
  C   C1432     1.0  0.12490  0.39526  0.30025  1.0000
  N   N358      1.0  0.12497  0.34822  0.37505  1.0000
  C   C1433     1.0  0.12505  0.33597  0.35933  1.0000
  N   N359      1.0  0.12512  0.34075  0.34080  1.0000
  C   C1434     1.0  0.12505  0.31705  0.36537  1.0000
  C   C1435     1.0  0.12497  0.31704  0.38471  1.0000
  C   C1436     1.0  0.12491  0.33597  0.39076  1.0000
  C   C1437     1.0  0.12497  0.30020  0.39531  1.0000
  C   C1438     1.0  0.12505  0.28284  0.38514  1.0000
  C   C1439     1.0  0.12511  0.28285  0.36492  1.0000
  C   C1440     1.0  0.12511  0.30021  0.35477  1.0000
  N   N360      1.0  0.12482  0.34075  0.40929  1.0000
  H   H353      1.0  0.12482  0.34108  0.44961  1.0000
  O   O353      1.0  0.12489  0.35647  0.48185  1.0000
  O   O354      1.0  0.12499  0.39350  0.48186  1.0000
  H   H354      1.0  0.12504  0.40890  0.44961  1.0000
  H   H355      1.0  0.12510  0.44958  0.40893  1.0000
  O   O355      1.0  0.12508  0.48181  0.39352  1.0000
  O   O356      1.0  0.12509  0.48180  0.35649  1.0000
  H   H356      1.0  0.12500  0.44955  0.34112  1.0000
  H   H357      1.0  0.12509  0.34108  0.30048  1.0000
  O   O357      1.0  0.12498  0.35648  0.26824  1.0000
  O   O358      1.0  0.12488  0.39350  0.26823  1.0000
  H   H358      1.0  0.12486  0.40890  0.30046  1.0000
  H   H359      1.0  0.12493  0.30042  0.40895  1.0000
  O   O359      1.0  0.12508  0.26818  0.39354  1.0000
  O   O360      1.0  0.12515  0.26819  0.35652  1.0000
  H   H360      1.0  0.12516  0.30044  0.34113  1.0000
  Ni  Ni45      1.0  0.12493  0.37499  0.37505  1.0000
  C   C1441     1.0  0.35473  0.12525  0.69979  1.0000
  C   C1442     1.0  0.36488  0.12521  0.71716  1.0000
  C   C1443     1.0  0.38510  0.12515  0.71716  1.0000
  C   C1444     1.0  0.39526  0.12512  0.69980  1.0000
  C   C1445     1.0  0.38467  0.12516  0.68296  1.0000
  C   C1446     1.0  0.36533  0.12523  0.68295  1.0000
  C   C1447     1.0  0.35929  0.12525  0.66403  1.0000
  N   N361      1.0  0.37500  0.12519  0.65179  1.0000
  C   C1448     1.0  0.39071  0.12513  0.66403  1.0000
  N   N362      1.0  0.40925  0.12505  0.65925  1.0000
  C   C1449     1.0  0.41403  0.12506  0.64071  1.0000
  N   N363      1.0  0.40179  0.12512  0.62500  1.0000
  C   C1450     1.0  0.41403  0.12515  0.60929  1.0000
  C   C1451     1.0  0.43296  0.12509  0.61533  1.0000
  C   C1452     1.0  0.43296  0.12505  0.63467  1.0000
  N   N364      1.0  0.37501  0.12516  0.59822  1.0000
  C   C1453     1.0  0.39072  0.12521  0.58598  1.0000
  N   N365      1.0  0.40925  0.12524  0.59076  1.0000
  C   C1454     1.0  0.38468  0.12518  0.56705  1.0000
  C   C1455     1.0  0.36534  0.12510  0.56705  1.0000
  C   C1456     1.0  0.35930  0.12508  0.58598  1.0000
  C   C1457     1.0  0.44981  0.12502  0.64526  1.0000
  C   C1458     1.0  0.46717  0.12502  0.63509  1.0000
  C   C1459     1.0  0.46716  0.12503  0.61487  1.0000
  C   C1460     1.0  0.44979  0.12508  0.60472  1.0000
  C   C1461     1.0  0.35474  0.12507  0.55021  1.0000
  C   C1462     1.0  0.36490  0.12513  0.53285  1.0000
  C   C1463     1.0  0.38512  0.12519  0.53285  1.0000
  C   C1464     1.0  0.39528  0.12521  0.55021  1.0000
  N   N366      1.0  0.34823  0.12514  0.62500  1.0000
  C   C1465     1.0  0.33599  0.12506  0.60929  1.0000
  N   N367      1.0  0.34077  0.12500  0.59076  1.0000
  C   C1466     1.0  0.31706  0.12507  0.61533  1.0000
  C   C1467     1.0  0.31705  0.12515  0.63467  1.0000
  C   C1468     1.0  0.33598  0.12521  0.64071  1.0000
  C   C1469     1.0  0.30021  0.12515  0.64526  1.0000
  C   C1470     1.0  0.28285  0.12507  0.63509  1.0000
  C   C1471     1.0  0.28286  0.12502  0.61488  1.0000
  C   C1472     1.0  0.30022  0.12501  0.60472  1.0000
  N   N368      1.0  0.34076  0.12530  0.65924  1.0000
  H   H361      1.0  0.34108  0.12529  0.69957  1.0000
  O   O361      1.0  0.35647  0.12523  0.73181  1.0000
  O   O362      1.0  0.39350  0.12512  0.73182  1.0000
  H   H362      1.0  0.40890  0.12507  0.69958  1.0000
  H   H363      1.0  0.44959  0.12500  0.65890  1.0000
  O   O363      1.0  0.48182  0.12501  0.64349  1.0000
  O   O364      1.0  0.48181  0.12500  0.60646  1.0000
  H   H364      1.0  0.44957  0.12510  0.59108  1.0000
  H   H365      1.0  0.34110  0.12502  0.55043  1.0000
  O   O365      1.0  0.35650  0.12513  0.51820  1.0000
  O   O366      1.0  0.39352  0.12522  0.51819  1.0000
  H   H366      1.0  0.40892  0.12525  0.55043  1.0000
  H   H367      1.0  0.30043  0.12519  0.65890  1.0000
  O   O367      1.0  0.26819  0.12504  0.64349  1.0000
  O   O368      1.0  0.26821  0.12498  0.60647  1.0000
  H   H368      1.0  0.30046  0.12496  0.59108  1.0000
  Ni  Ni46      1.0  0.37501  0.12518  0.62501  1.0000
  C   C1473     1.0  0.87489  0.35471  0.69984  1.0000
  C   C1474     1.0  0.87493  0.36487  0.71721  1.0000
  C   C1475     1.0  0.87499  0.38509  0.71721  1.0000
  C   C1476     1.0  0.87502  0.39525  0.69984  1.0000
  C   C1477     1.0  0.87498  0.38465  0.68300  1.0000
  C   C1478     1.0  0.87491  0.36532  0.68300  1.0000
  C   C1479     1.0  0.87489  0.35928  0.66407  1.0000
  N   N369      1.0  0.87495  0.37499  0.65183  1.0000
  C   C1480     1.0  0.87501  0.39070  0.66407  1.0000
  N   N370      1.0  0.87509  0.40923  0.65929  1.0000
  C   C1481     1.0  0.87508  0.41402  0.64076  1.0000
  N   N371      1.0  0.87502  0.40177  0.62505  1.0000
  C   C1482     1.0  0.87499  0.41401  0.60933  1.0000
  C   C1483     1.0  0.87504  0.43294  0.61537  1.0000
  C   C1484     1.0  0.87509  0.43295  0.63471  1.0000
  N   N372      1.0  0.87498  0.37499  0.59827  1.0000
  C   C1485     1.0  0.87493  0.39070  0.58602  1.0000
  N   N373      1.0  0.87490  0.40923  0.59080  1.0000
  C   C1486     1.0  0.87496  0.38466  0.56709  1.0000
  C   C1487     1.0  0.87503  0.36532  0.56710  1.0000
  C   C1488     1.0  0.87506  0.35928  0.58603  1.0000
  C   C1489     1.0  0.87512  0.44979  0.64530  1.0000
  C   C1490     1.0  0.87512  0.46715  0.63513  1.0000
  C   C1491     1.0  0.87510  0.46714  0.61491  1.0000
  C   C1492     1.0  0.87505  0.44978  0.60476  1.0000
  C   C1493     1.0  0.87507  0.35472  0.55026  1.0000
  C   C1494     1.0  0.87501  0.36488  0.53289  1.0000
  C   C1495     1.0  0.87495  0.38510  0.53289  1.0000
  C   C1496     1.0  0.87493  0.39526  0.55025  1.0000
  N   N374      1.0  0.87500  0.34821  0.62505  1.0000
  C   C1497     1.0  0.87508  0.33597  0.60934  1.0000
  N   N375      1.0  0.87514  0.34075  0.59081  1.0000
  C   C1498     1.0  0.87508  0.31704  0.61538  1.0000
  C   C1499     1.0  0.87499  0.31704  0.63471  1.0000
  C   C1500     1.0  0.87493  0.33597  0.64076  1.0000
  C   C1501     1.0  0.87499  0.30019  0.64531  1.0000
  C   C1502     1.0  0.87507  0.28284  0.63514  1.0000
  C   C1503     1.0  0.87513  0.28284  0.61493  1.0000
  C   C1504     1.0  0.87513  0.30021  0.60477  1.0000
  N   N376      1.0  0.87484  0.34075  0.65929  1.0000
  H   H369      1.0  0.87485  0.34107  0.69962  1.0000
  O   O369      1.0  0.87492  0.35646  0.73186  1.0000
  O   O370      1.0  0.87502  0.39349  0.73186  1.0000
  H   H370      1.0  0.87507  0.40889  0.69962  1.0000
  H   H371      1.0  0.87514  0.44958  0.65894  1.0000
  O   O371      1.0  0.87512  0.48181  0.64353  1.0000
  O   O372      1.0  0.87513  0.48179  0.60650  1.0000
  H   H372      1.0  0.87503  0.44955  0.59112  1.0000
  H   H373      1.0  0.87511  0.34108  0.55048  1.0000
  O   O373      1.0  0.87501  0.35648  0.51824  1.0000
  O   O374      1.0  0.87491  0.39350  0.51824  1.0000
  H   H374      1.0  0.87489  0.40890  0.55047  1.0000
  H   H375      1.0  0.87495  0.30041  0.65895  1.0000
  O   O375      1.0  0.87510  0.26818  0.64354  1.0000
  O   O376      1.0  0.87517  0.26819  0.60652  1.0000
  H   H376      1.0  0.87518  0.30044  0.59113  1.0000
  Ni  Ni47      1.0  0.87495  0.37499  0.62505  1.0000
  C   C1505     1.0  0.12483  0.60473  0.69980  1.0000
  C   C1506     1.0  0.12488  0.61489  0.71717  1.0000
  C   C1507     1.0  0.12494  0.63511  0.71717  1.0000
  C   C1508     1.0  0.12497  0.64527  0.69980  1.0000
  C   C1509     1.0  0.12493  0.63467  0.68296  1.0000
  C   C1510     1.0  0.12485  0.61534  0.68296  1.0000
  C   C1511     1.0  0.12483  0.60929  0.66404  1.0000
  N   N377      1.0  0.12489  0.62501  0.65179  1.0000
  C   C1512     1.0  0.12495  0.64072  0.66403  1.0000
  N   N378      1.0  0.12503  0.65925  0.65925  1.0000
  C   C1513     1.0  0.12502  0.66403  0.64072  1.0000
  N   N379      1.0  0.12496  0.65179  0.62501  1.0000
  C   C1514     1.0  0.12493  0.66403  0.60929  1.0000
  C   C1515     1.0  0.12499  0.68295  0.61533  1.0000
  C   C1516     1.0  0.12503  0.68296  0.63467  1.0000
  N   N380      1.0  0.12492  0.62501  0.59823  1.0000
  C   C1517     1.0  0.12486  0.64071  0.58598  1.0000
  N   N381      1.0  0.12484  0.65925  0.59076  1.0000
  C   C1518     1.0  0.12490  0.63467  0.56705  1.0000
  C   C1519     1.0  0.12497  0.61533  0.56706  1.0000
  C   C1520     1.0  0.12499  0.60929  0.58599  1.0000
  C   C1521     1.0  0.12506  0.69981  0.64525  1.0000
  C   C1522     1.0  0.12506  0.71717  0.63509  1.0000
  C   C1523     1.0  0.12504  0.71716  0.61487  1.0000
  C   C1524     1.0  0.12499  0.69979  0.60472  1.0000
  C   C1525     1.0  0.12500  0.60473  0.55022  1.0000
  C   C1526     1.0  0.12494  0.61489  0.53286  1.0000
  C   C1527     1.0  0.12488  0.63510  0.53285  1.0000
  C   C1528     1.0  0.12486  0.64527  0.55021  1.0000
  N   N382      1.0  0.12494  0.59823  0.62501  1.0000
  C   C1529     1.0  0.12502  0.58598  0.60930  1.0000
  N   N383      1.0  0.12508  0.59076  0.59077  1.0000
  C   C1530     1.0  0.12501  0.56706  0.61534  1.0000
  C   C1531     1.0  0.12493  0.56705  0.63468  1.0000
  C   C1532     1.0  0.12487  0.58598  0.64072  1.0000
  C   C1533     1.0  0.12493  0.55021  0.64528  1.0000
  C   C1534     1.0  0.12501  0.53285  0.63511  1.0000
  C   C1535     1.0  0.12506  0.53286  0.61489  1.0000
  C   C1536     1.0  0.12507  0.55022  0.60474  1.0000
  N   N384      1.0  0.12479  0.59076  0.65925  1.0000
  H   H377      1.0  0.12479  0.59109  0.69958  1.0000
  O   O377      1.0  0.12487  0.60649  0.73182  1.0000
  O   O378      1.0  0.12497  0.64351  0.73182  1.0000
  H   H378      1.0  0.12501  0.65891  0.69958  1.0000
  H   H379      1.0  0.12508  0.69959  0.65890  1.0000
  O   O379      1.0  0.12507  0.73182  0.64348  1.0000
  O   O380      1.0  0.12507  0.73180  0.60645  1.0000
  H   H380      1.0  0.12497  0.69956  0.59108  1.0000
  H   H381      1.0  0.12505  0.59109  0.55045  1.0000
  O   O381      1.0  0.12494  0.60648  0.51821  1.0000
  O   O382      1.0  0.12485  0.64351  0.51820  1.0000
  H   H382      1.0  0.12482  0.65891  0.55043  1.0000
  H   H383      1.0  0.12489  0.55043  0.65892  1.0000
  O   O383      1.0  0.12504  0.51819  0.64351  1.0000
  O   O384      1.0  0.12510  0.51820  0.60649  1.0000
  H   H384      1.0  0.12511  0.55045  0.59110  1.0000
  Ni  Ni48      1.0  0.12489  0.62500  0.62501  1.0000
  Cu  Cu1       1.0  0.12501  0.99990  0.37506  1.0000
  Cu  Cu2       1.0  0.00010  0.12501  0.37491  1.0000
  Cu  Cu3       1.0  0.87501  0.99990  0.37501  1.0000
  Cu  Cu4       1.0  0.00010  0.87501  0.37484  1.0000
  Cu  Cu5       1.0  0.12500  0.00010  0.62505  1.0000
  Cu  Cu6       1.0  0.00010  0.12502  0.62492  1.0000
  Cu  Cu7       1.0  0.87500  0.99990  0.62502  1.0000
  Cu  Cu8       1.0  0.00010  0.87503  0.62483  1.0000
  Cu  Cu9       1.0  0.37487  0.12497  0.99990  1.0000
  Cu  Cu10      1.0  0.87499  0.37512  0.00010  1.0000
  Cu  Cu11      1.0  0.62493  0.87499  0.00010  1.0000
  Cu  Cu12      1.0  0.12501  0.62507  0.00010  1.0000
  Cu  Cu13      1.0  0.37493  0.87497  0.00010  1.0000
  Cu  Cu14      1.0  0.12499  0.37507  0.00010  1.0000
  Cu  Cu15      1.0  0.62487  0.12499  0.99990  1.0000
  Cu  Cu16      1.0  0.87501  0.62512  0.00010  1.0000
  Cu  Cu17      1.0  0.99990  0.37494  0.12503  1.0000
  Cu  Cu18      1.0  0.00010  0.62494  0.87499  1.0000
  Cu  Cu19      1.0  0.37505  0.00010  0.87501  1.0000
  Cu  Cu20      1.0  0.00010  0.37491  0.87503  1.0000
  Cu  Cu21      1.0  0.62505  0.00010  0.87498  1.0000
  Cu  Cu22      1.0  0.00010  0.62491  0.12499  1.0000
  Cu  Cu23      1.0  0.37509  0.99990  0.12498  1.0000
  Cu  Cu24      1.0  0.62509  0.99990  0.12500  1.0000
  Cu  Cu25      1.0  0.62501  0.50001  0.87507  1.0000
  Cu  Cu26      1.0  0.50002  0.62503  0.87487  1.0000
  Cu  Cu27      1.0  0.37500  0.49999  0.87505  1.0000
  Cu  Cu28      1.0  0.50000  0.37503  0.87490  1.0000
  Cu  Cu29      1.0  0.62499  0.49998  0.12508  1.0000
  Cu  Cu30      1.0  0.50001  0.62499  0.12488  1.0000
  Cu  Cu31      1.0  0.37500  0.49996  0.12502  1.0000
  Cu  Cu32      1.0  0.50000  0.37499  0.12489  1.0000
  Cu  Cu33      1.0  0.87488  0.62497  0.50002  1.0000
  Cu  Cu34      1.0  0.37500  0.87512  0.50001  1.0000
  Cu  Cu35      1.0  0.12493  0.37499  0.50004  1.0000
  Cu  Cu36      1.0  0.62501  0.12507  0.50000  1.0000
  Cu  Cu37      1.0  0.87494  0.37498  0.50005  1.0000
  Cu  Cu38      1.0  0.62500  0.87507  0.50000  1.0000
  Cu  Cu39      1.0  0.12488  0.62499  0.50001  1.0000
  Cu  Cu40      1.0  0.37501  0.12514  0.50001  1.0000
  Cu  Cu41      1.0  0.50000  0.87497  0.62499  1.0000
  Cu  Cu42      1.0  0.50002  0.12489  0.37497  1.0000
  Cu  Cu43      1.0  0.87504  0.49999  0.37502  1.0000
  Cu  Cu44      1.0  0.50001  0.87488  0.37499  1.0000
  Cu  Cu45      1.0  0.12506  0.49999  0.37500  1.0000
  Cu  Cu46      1.0  0.50001  0.12498  0.62497  1.0000
  Cu  Cu47      1.0  0.87511  0.50000  0.62502  1.0000
  Cu  Cu48      1.0  0.12508  0.50001  0.62500  1.0000
  Zn  Zn1       1.0  0.12507  0.24999  0.37508  1.0000
  Zn  Zn2       1.0  0.75002  0.12492  0.37491  1.0000
  Zn  Zn3       1.0  0.87501  0.74998  0.37500  1.0000
  Zn  Zn4       1.0  0.25001  0.87496  0.37493  1.0000
  Zn  Zn5       1.0  0.12503  0.75001  0.62500  1.0000
  Zn  Zn6       1.0  0.25001  0.12503  0.62495  1.0000
  Zn  Zn7       1.0  0.87508  0.24999  0.62507  1.0000
  Zn  Zn8       1.0  0.75001  0.87496  0.62489  1.0000
  Zn  Zn9       1.0  0.37495  0.12501  0.25001  1.0000
  Zn  Zn10      1.0  0.87493  0.37506  0.25005  1.0000
  Zn  Zn11      1.0  0.62497  0.87499  0.25001  1.0000
  Zn  Zn12      1.0  0.12493  0.62501  0.25001  1.0000
  Zn  Zn13      1.0  0.37493  0.87510  0.75001  1.0000
  Zn  Zn14      1.0  0.12496  0.37503  0.75005  1.0000
  Zn  Zn15      1.0  0.62492  0.12507  0.75000  1.0000
  Zn  Zn16      1.0  0.87497  0.62507  0.75002  1.0000
  Zn  Zn17      1.0  0.25000  0.37494  0.12492  1.0000
  Zn  Zn18      1.0  0.25002  0.62495  0.87490  1.0000
  Zn  Zn19      1.0  0.37501  0.24999  0.87507  1.0000
  Zn  Zn20      1.0  0.75001  0.37498  0.87496  1.0000
  Zn  Zn21      1.0  0.62506  0.75001  0.87503  1.0000
  Zn  Zn22      1.0  0.75001  0.62497  0.12494  1.0000
  Zn  Zn23      1.0  0.37508  0.74997  0.12503  1.0000
  Zn  Zn24      1.0  0.62503  0.24997  0.12507  1.0000
  Zn  Zn25      1.0  0.87502  0.74999  0.62497  1.0000
  Zn  Zn26      1.0  0.25000  0.87503  0.62494  1.0000
  Zn  Zn27      1.0  0.12505  0.25001  0.62507  1.0000
  Zn  Zn28      1.0  0.75001  0.12497  0.62494  1.0000
  Zn  Zn29      1.0  0.87505  0.24998  0.37504  1.0000
  Zn  Zn30      1.0  0.75001  0.87494  0.37491  1.0000
  Zn  Zn31      1.0  0.12501  0.74999  0.37499  1.0000
  Zn  Zn32      1.0  0.25002  0.12498  0.37498  1.0000
  Zn  Zn33      1.0  0.62496  0.87506  0.75001  1.0000
  Zn  Zn34      1.0  0.12496  0.62504  0.75001  1.0000
  Zn  Zn35      1.0  0.37493  0.12510  0.75000  1.0000
  Zn  Zn36      1.0  0.87499  0.37503  0.75005  1.0000
  Zn  Zn37      1.0  0.62497  0.12499  0.24999  1.0000
  Zn  Zn38      1.0  0.87493  0.62502  0.25002  1.0000
  Zn  Zn39      1.0  0.37500  0.87499  0.25001  1.0000
  Zn  Zn40      1.0  0.12496  0.37503  0.25004  1.0000
  Zn  Zn41      1.0  0.75002  0.62501  0.87496  1.0000
  Zn  Zn42      1.0  0.75000  0.37499  0.12500  1.0000
  Zn  Zn43      1.0  0.62506  0.74998  0.12502  1.0000
  Zn  Zn44      1.0  0.25001  0.62493  0.12493  1.0000
  Zn  Zn45      1.0  0.37501  0.24997  0.12499  1.0000
  Zn  Zn46      1.0  0.25000  0.37496  0.87498  1.0000
  Zn  Zn47      1.0  0.62500  0.25001  0.87501  1.0000
  Zn  Zn48      1.0  0.37504  0.75000  0.87499  1.0000
