data_image0
_chemical_formula_structural       C7NCNCNC3NCNC11NCNC7NH8C16HO2H2O2H2O2H2O2HNiC7NCNCNC3NCNC11NCNC7NH8C16HO2H2O2H2O2H2O2HNiC7NCNCNC3NCNC11NCNC7NH8C16HO2H2O2H2O2H2O2HNiC7NCNCNC3NCNC11NCNC7NH8C16HO2H2O2H2O2H2O2HNiC7NCNCNC3NCNC11NCNC7NH8C16HO2H2O2H2O2H2O2HNiC7NCNCNC3NCNC11NCNC7NH8C16HO2H2O2H2O2H2O2HNiC7NCNCNC3NCNC11NCNC7NH8C16HO2H2O2H2O2H2O2HNiC7NCNCNC3NCNC11NCNC7NH8C16HO2H2O2H2O2H2O2HNiC7NCNCNC3NCNC11NCNC7NH8C16HO2H2O2H2O2H2O2HNiC7NCNCNC3NCNC11NCNC7NH8C16HO2H2O2H2O2H2O2HNiC7NCNCNC3NCNC11NCNC7NH8C16HO2H2O2H2O2H2O2HNiC7NCNCNC3NCNC11NCNC7NH8C16HO2H2O2H2O2H2O2HNiC7NCNCNC3NCNC11NCNC7NH8C16HO2H2O2H2O2H2O2HNiC7NCNCNC3NCNC11NCNC7NH8C16HO2H2O2H2O2H2O2HNiC7NCNCNC3NCNC11NCNC7NH8C16HO2H2O2H2O2H2O2HNiC7NCNCNC3NCNC11NCNC7NH8C16HO2H2O2H2O2H2O2HNiC7NCNCNC3NCNC11NCNC7NH8C16HO2H2O2H2O2H2O2HNiC7NCNCNC3NCNC11NCNC7NH8C16HO2H2O2H2O2H2O2HNiC7NCNCNC3NCNC11NCNC7NH8C16HO2H2O2H2O2H2O2HNiC7NCNCNC3NCNC11NCNC7NH8C16HO2H2O2H2O2H2O2HNiC7NCNCNC3NCNC11NCNC7NH8C16HO2H2O2H2O2H2O2HNiC7NCNCNC3NCNC11NCNC7NH8C16HO2H2O2H2O2H2O2HNiC7NCNCNC3NCNC11NCNC7NH8C16HO2H2O2H2O2H2O2HNiC7NCNCNC3NCNC11NCNC7NH8C16HO2H2O2H2O2H2O2HNiC7NCNCNC3NCNC11NCNC7NH8C16HO2H2O2H2O2H2O2HNiC7NCNCNC3NCNC11NCNC7NH8C16HO2H2O2H2O2H2O2HNiC7NCNCNC3NCNC11NCNC7NH8C16HO2H2O2H2O2H2O2HNiC7NCNCNC3NCNC11NCNC7NH8C16HO2H2O2H2O2H2O2HNiC7NCNCNC3NCNC11NCNC7NH8C16HO2H2O2H2O2H2O2HNiC7NCNCNC3NCNC11NCNC7NH8C16HO2H2O2H2O2H2O2HNiC7NCNCNC3NCNC11NCNC7NH8C16HO2H2O2H2O2H2O2HNiC7NCNCNC3NCNC11NCNC7NH8C16HO2H2O2H2O2H2O2HNiC7NCNCNC3NCNC11NCNC7NH8C16HO2H2O2H2O2H2O2HNiC7NCNCNC3NCNC11NCNC7NH8C16HO2H2O2H2O2H2O2HNiC7NCNCNC3NCNC11NCNC7NH8C16HO2H2O2H2O2H2O2HNiC7NCNCNC3NCNC11NCNC7NH8C16HO2H2O2H2O2H2O2HNiC7NCNCNC3NCNC11NCNC7NH8C16HO2H2O2H2O2H2O2HNiC7NCNCNC3NCNC11NCNC7NH8C16HO2H2O2H2O2H2O2HNiC7NCNCNC3NCNC11NCNC7NH8C16HO2H2O2H2O2H2O2HNiC7NCNCNC3NCNC11NCNC7NH8C16HO2H2O2H2O2H2O2HNiC7NCNCNC3NCNC11NCNC7NH8C16HO2H2O2H2O2H2O2HNiC7NCNCNC3NCNC11NCNC7NH8C16HO2H2O2H2O2H2O2HNiC7NCNCNC3NCNC11NCNC7NH8C16HO2H2O2H2O2H2O2HNiC7NCNCNC3NCNC11NCNC7NH8C16HO2H2O2H2O2H2O2HNiC7NCNCNC3NCNC11NCNC7NH8C16HO2H2O2H2O2H2O2HNiC7NCNCNC3NCNC11NCNC7NH8C16HO2H2O2H2O2H2O2HNiC7NCNCNC3NCNC11NCNC7NH8C16HO2H2O2H2O2H2O2HNiC7NCNCNC3NCNC11NCNC7NH8C16HO2H2O2H2O2H2O2HNiCu48Zn48
_chemical_formula_sum              "C2304 N384 H768 O384 Ni48 Cu48 Zn48"
_cell_length_a       100.286
_cell_length_b       100.293
_cell_length_c       100.289
_cell_angle_alpha    90.2768
_cell_angle_beta     90.2774
_cell_angle_gamma    89.7231

_space_group_name_H-M_alt    "P 1"
_space_group_IT_number       1

loop_
  _space_group_symop_operation_xyz
  'x, y, z'

loop_
  _atom_site_type_symbol
  _atom_site_label
  _atom_site_symmetry_multiplicity
  _atom_site_fract_x
  _atom_site_fract_y
  _atom_site_fract_z
  _atom_site_occupancy
  C   C1        1.0  0.14058  0.06677  0.37503  1.0000
  C   C2        1.0  0.13278  0.05349  0.37503  1.0000
  C   C3        1.0  0.11732  0.05352  0.37503  1.0000
  C   C4        1.0  0.10952  0.06682  0.37503  1.0000
  C   C5        1.0  0.11760  0.07973  0.37503  1.0000
  C   C6        1.0  0.13251  0.07971  0.37503  1.0000
  C   C7        1.0  0.13719  0.09423  0.37503  1.0000
  N   N1        1.0  0.12503  0.10339  0.37504  1.0000
  C   C8        1.0  0.11290  0.09427  0.37503  1.0000
  N   N2        1.0  0.09845  0.09854  0.37504  1.0000
  C   C9        1.0  0.09420  0.11296  0.37504  1.0000
  N   N3        1.0  0.10332  0.12509  0.37504  1.0000
  C   C10       1.0  0.09418  0.13724  0.37504  1.0000
  C   C11       1.0  0.07966  0.13256  0.37504  1.0000
  C   C12       1.0  0.07966  0.11766  0.37504  1.0000
  N   N4        1.0  0.12493  0.14671  0.37504  1.0000
  C   C13       1.0  0.11278  0.15585  0.37504  1.0000
  N   N5        1.0  0.09839  0.15164  0.37504  1.0000
  C   C14       1.0  0.11747  0.17037  0.37504  1.0000
  C   C15       1.0  0.13236  0.17036  0.37504  1.0000
  C   C16       1.0  0.13706  0.15583  0.37504  1.0000
  C   C17       1.0  0.06675  0.10959  0.37504  1.0000
  C   C18       1.0  0.05346  0.11735  0.37504  1.0000
  C   C19       1.0  0.05345  0.13280  0.37504  1.0000
  C   C20       1.0  0.06673  0.14061  0.37504  1.0000
  C   C21       1.0  0.14044  0.18328  0.37504  1.0000
  C   C22       1.0  0.13266  0.19657  0.37504  1.0000
  C   C23       1.0  0.11722  0.19657  0.37504  1.0000
  C   C24       1.0  0.10941  0.18329  0.37504  1.0000
  N   N6        1.0  0.14664  0.12500  0.37504  1.0000
  C   C25       1.0  0.15576  0.13713  0.37504  1.0000
  N   N7        1.0  0.15148  0.15157  0.37504  1.0000
  C   C26       1.0  0.17030  0.13244  0.37504  1.0000
  C   C27       1.0  0.17031  0.11753  0.37504  1.0000
  C   C28       1.0  0.15580  0.11284  0.37504  1.0000
  C   C29       1.0  0.18325  0.10947  0.37503  1.0000
  C   C30       1.0  0.19654  0.11727  0.37503  1.0000
  C   C31       1.0  0.19652  0.13273  0.37504  1.0000
  C   C32       1.0  0.18321  0.14051  0.37504  1.0000
  N   N8        1.0  0.15159  0.09843  0.37503  1.0000
  H   H1        1.0  0.15190  0.06692  0.37503  1.0000
  H   H2        1.0  0.09820  0.06700  0.37503  1.0000
  H   H3        1.0  0.06691  0.09827  0.37504  1.0000
  H   H4        1.0  0.06688  0.15192  0.37504  1.0000
  H   H5        1.0  0.15175  0.18311  0.37504  1.0000
  H   H6        1.0  0.09810  0.18314  0.37504  1.0000
  H   H7        1.0  0.18311  0.09815  0.37503  1.0000
  H   H8        1.0  0.18303  0.15184  0.37504  1.0000
  C   C33       1.0  0.20985  0.10969  0.37503  1.0000
  C   C34       1.0  0.22310  0.11739  0.37503  1.0000
  C   C35       1.0  0.22308  0.13268  0.37503  1.0000
  C   C36       1.0  0.20980  0.14034  0.37504  1.0000
  C   C37       1.0  0.14036  0.04017  0.37503  1.0000
  C   C38       1.0  0.13267  0.02691  0.37503  1.0000
  C   C39       1.0  0.11739  0.02694  0.37503  1.0000
  C   C40       1.0  0.10972  0.04022  0.37503  1.0000
  C   C41       1.0  0.04016  0.10974  0.37504  1.0000
  C   C42       1.0  0.02690  0.11741  0.37504  1.0000
  C   C43       1.0  0.02689  0.13269  0.37504  1.0000
  C   C44       1.0  0.04015  0.14038  0.37504  1.0000
  C   C45       1.0  0.14027  0.20987  0.37504  1.0000
  C   C46       1.0  0.13262  0.22312  0.37504  1.0000
  C   C47       1.0  0.11735  0.22313  0.37504  1.0000
  C   C48       1.0  0.10966  0.20988  0.37504  1.0000
  H   H9        1.0  0.20989  0.09837  0.37503  1.0000
  O   O1        1.0  0.23605  0.10997  0.37503  1.0000
  O   O2        1.0  0.23601  0.14013  0.37503  1.0000
  H   H10       1.0  0.20982  0.15167  0.37504  1.0000
  H   H11       1.0  0.15168  0.04013  0.37503  1.0000
  O   O3        1.0  0.14009  0.01396  0.37503  1.0000
  O   O4        1.0  0.10993  0.01400  0.37503  1.0000
  H   H12       1.0  0.09839  0.04019  0.37503  1.0000
  H   H13       1.0  0.04013  0.09843  0.37504  1.0000
  O   O5        1.0  0.01396  0.10997  0.37504  1.0000
  O   O6        1.0  0.01395  0.14009  0.37504  1.0000
  H   H14       1.0  0.04012  0.15169  0.37504  1.0000
  H   H15       1.0  0.15157  0.20990  0.37504  1.0000
  O   O7        1.0  0.14005  0.23606  0.37504  1.0000
  O   O8        1.0  0.10994  0.23607  0.37504  1.0000
  H   H16       1.0  0.09834  0.20991  0.37504  1.0000
  Ni  Ni1       1.0  0.12498  0.12505  0.37504  1.0000
  C   C49       1.0  0.89058  0.06674  0.37502  1.0000
  C   C50       1.0  0.88278  0.05346  0.37502  1.0000
  C   C51       1.0  0.86732  0.05349  0.37502  1.0000
  C   C52       1.0  0.85952  0.06679  0.37502  1.0000
  C   C53       1.0  0.86760  0.07970  0.37502  1.0000
  C   C54       1.0  0.88251  0.07968  0.37502  1.0000
  C   C55       1.0  0.88719  0.09420  0.37502  1.0000
  N   N9        1.0  0.87503  0.10336  0.37502  1.0000
  C   C56       1.0  0.86290  0.09424  0.37502  1.0000
  N   N10       1.0  0.84845  0.09850  0.37502  1.0000
  C   C57       1.0  0.84419  0.11293  0.37502  1.0000
  N   N11       1.0  0.85332  0.12506  0.37502  1.0000
  C   C58       1.0  0.84417  0.13721  0.37502  1.0000
  C   C59       1.0  0.82966  0.13252  0.37502  1.0000
  C   C60       1.0  0.82966  0.11763  0.37502  1.0000
  N   N12       1.0  0.87492  0.14668  0.37502  1.0000
  C   C61       1.0  0.86278  0.15581  0.37502  1.0000
  N   N13       1.0  0.84839  0.15161  0.37502  1.0000
  C   C62       1.0  0.86746  0.17034  0.37502  1.0000
  C   C63       1.0  0.88236  0.17033  0.37502  1.0000
  C   C64       1.0  0.88706  0.15580  0.37502  1.0000
  C   C65       1.0  0.81674  0.10956  0.37502  1.0000
  C   C66       1.0  0.80346  0.11732  0.37501  1.0000
  C   C67       1.0  0.80345  0.13276  0.37501  1.0000
  C   C68       1.0  0.81672  0.14057  0.37502  1.0000
  C   C69       1.0  0.89043  0.18325  0.37502  1.0000
  C   C70       1.0  0.88266  0.19654  0.37502  1.0000
  C   C71       1.0  0.86721  0.19654  0.37502  1.0000
  C   C72       1.0  0.85941  0.18326  0.37502  1.0000
  N   N14       1.0  0.89664  0.12497  0.37502  1.0000
  C   C73       1.0  0.90575  0.13711  0.37502  1.0000
  N   N15       1.0  0.90148  0.15154  0.37502  1.0000
  C   C74       1.0  0.92030  0.13241  0.37502  1.0000
  C   C75       1.0  0.92031  0.11750  0.37502  1.0000
  C   C76       1.0  0.90580  0.11282  0.37502  1.0000
  C   C77       1.0  0.93325  0.10945  0.37502  1.0000
  C   C78       1.0  0.94654  0.11725  0.37502  1.0000
  C   C79       1.0  0.94651  0.13270  0.37502  1.0000
  C   C80       1.0  0.93320  0.14049  0.37502  1.0000
  N   N16       1.0  0.90159  0.09840  0.37502  1.0000
  H   H17       1.0  0.90190  0.06689  0.37502  1.0000
  H   H18       1.0  0.84820  0.06697  0.37502  1.0000
  H   H19       1.0  0.81691  0.09824  0.37502  1.0000
  H   H20       1.0  0.81687  0.15189  0.37502  1.0000
  H   H21       1.0  0.90174  0.18308  0.37502  1.0000
  H   H22       1.0  0.84809  0.18311  0.37502  1.0000
  H   H23       1.0  0.93311  0.09812  0.37502  1.0000
  H   H24       1.0  0.93303  0.15181  0.37502  1.0000
  C   C81       1.0  0.95985  0.10966  0.37502  1.0000
  C   C82       1.0  0.97310  0.11736  0.37502  1.0000
  C   C83       1.0  0.97308  0.13265  0.37502  1.0000
  C   C84       1.0  0.95980  0.14032  0.37502  1.0000
  C   C85       1.0  0.89036  0.04014  0.37502  1.0000
  C   C86       1.0  0.88267  0.02688  0.37502  1.0000
  C   C87       1.0  0.86739  0.02691  0.37502  1.0000
  C   C88       1.0  0.85972  0.04019  0.37502  1.0000
  C   C89       1.0  0.79016  0.10971  0.37501  1.0000
  C   C90       1.0  0.77689  0.11737  0.37501  1.0000
  C   C91       1.0  0.77689  0.13266  0.37501  1.0000
  C   C92       1.0  0.79015  0.14034  0.37501  1.0000
  C   C93       1.0  0.89027  0.20984  0.37502  1.0000
  C   C94       1.0  0.88261  0.22309  0.37502  1.0000
  C   C95       1.0  0.86734  0.22310  0.37502  1.0000
  C   C96       1.0  0.85965  0.20985  0.37502  1.0000
  H   H25       1.0  0.95989  0.09835  0.37502  1.0000
  O   O9        1.0  0.98605  0.10995  0.37502  1.0000
  O   O10       1.0  0.98601  0.14010  0.37502  1.0000
  H   H26       1.0  0.95982  0.15165  0.37502  1.0000
  H   H27       1.0  0.90169  0.04010  0.37502  1.0000
  O   O11       1.0  0.89009  0.01393  0.37502  1.0000
  O   O12       1.0  0.85993  0.01397  0.37502  1.0000
  H   H28       1.0  0.84839  0.04016  0.37502  1.0000
  H   H29       1.0  0.79013  0.09840  0.37501  1.0000
  O   O13       1.0  0.76395  0.10993  0.37501  1.0000
  O   O14       1.0  0.76395  0.14005  0.37501  1.0000
  H   H30       1.0  0.79011  0.15165  0.37501  1.0000
  H   H31       1.0  0.90157  0.20987  0.37502  1.0000
  O   O15       1.0  0.89004  0.23603  0.37502  1.0000
  O   O16       1.0  0.85993  0.23604  0.37502  1.0000
  H   H32       1.0  0.84834  0.20988  0.37502  1.0000
  Ni  Ni2       1.0  0.87498  0.12502  0.37502  1.0000
  C   C97       1.0  0.89061  0.81674  0.37501  1.0000
  C   C98       1.0  0.88281  0.80346  0.37501  1.0000
  C   C99       1.0  0.86734  0.80349  0.37501  1.0000
  C   C100      1.0  0.85955  0.81679  0.37501  1.0000
  C   C101      1.0  0.86763  0.82970  0.37501  1.0000
  C   C102      1.0  0.88254  0.82968  0.37501  1.0000
  C   C103      1.0  0.88722  0.84420  0.37501  1.0000
  N   N17       1.0  0.87506  0.85336  0.37502  1.0000
  C   C104      1.0  0.86292  0.84424  0.37502  1.0000
  N   N18       1.0  0.84848  0.84850  0.37502  1.0000
  C   C105      1.0  0.84422  0.86293  0.37502  1.0000
  N   N19       1.0  0.85335  0.87506  0.37502  1.0000
  C   C106      1.0  0.84420  0.88721  0.37502  1.0000
  C   C107      1.0  0.82969  0.88252  0.37502  1.0000
  C   C108      1.0  0.82968  0.86763  0.37502  1.0000
  N   N20       1.0  0.87495  0.89667  0.37502  1.0000
  C   C109      1.0  0.86281  0.90581  0.37502  1.0000
  N   N21       1.0  0.84842  0.90161  0.37502  1.0000
  C   C110      1.0  0.86749  0.92034  0.37502  1.0000
  C   C111      1.0  0.88239  0.92033  0.37502  1.0000
  C   C112      1.0  0.88709  0.90580  0.37502  1.0000
  C   C113      1.0  0.81677  0.85956  0.37502  1.0000
  C   C114      1.0  0.80348  0.86732  0.37502  1.0000
  C   C115      1.0  0.80347  0.88277  0.37502  1.0000
  C   C116      1.0  0.81675  0.89057  0.37502  1.0000
  C   C117      1.0  0.89046  0.93324  0.37502  1.0000
  C   C118      1.0  0.88269  0.94654  0.37502  1.0000
  C   C119      1.0  0.86724  0.94654  0.37502  1.0000
  C   C120      1.0  0.85944  0.93326  0.37502  1.0000
  N   N22       1.0  0.89667  0.87497  0.37502  1.0000
  C   C121      1.0  0.90578  0.88710  0.37502  1.0000
  N   N23       1.0  0.90151  0.90154  0.37502  1.0000
  C   C122      1.0  0.92033  0.88241  0.37502  1.0000
  C   C123      1.0  0.92034  0.86750  0.37502  1.0000
  C   C124      1.0  0.90582  0.86281  0.37502  1.0000
  C   C125      1.0  0.93328  0.85944  0.37501  1.0000
  C   C126      1.0  0.94657  0.86724  0.37501  1.0000
  C   C127      1.0  0.94654  0.88270  0.37502  1.0000
  C   C128      1.0  0.93323  0.89048  0.37502  1.0000
  N   N24       1.0  0.90162  0.84840  0.37501  1.0000
  H   H33       1.0  0.90193  0.81688  0.37501  1.0000
  H   H34       1.0  0.84822  0.81697  0.37501  1.0000
  H   H35       1.0  0.81694  0.84824  0.37502  1.0000
  H   H36       1.0  0.81690  0.90189  0.37502  1.0000
  H   H37       1.0  0.90177  0.93308  0.37502  1.0000
  H   H38       1.0  0.84812  0.93311  0.37502  1.0000
  H   H39       1.0  0.93314  0.84812  0.37501  1.0000
  H   H40       1.0  0.93305  0.90181  0.37502  1.0000
  C   C129      1.0  0.95987  0.85966  0.37501  1.0000
  C   C130      1.0  0.97313  0.86736  0.37501  1.0000
  C   C131      1.0  0.97311  0.88265  0.37501  1.0000
  C   C132      1.0  0.95983  0.89031  0.37502  1.0000
  C   C133      1.0  0.89039  0.79014  0.37501  1.0000
  C   C134      1.0  0.88270  0.77688  0.37501  1.0000
  C   C135      1.0  0.86741  0.77691  0.37501  1.0000
  C   C136      1.0  0.85974  0.79019  0.37501  1.0000
  C   C137      1.0  0.79019  0.85971  0.37502  1.0000
  C   C138      1.0  0.77692  0.86738  0.37502  1.0000
  C   C139      1.0  0.77692  0.88266  0.37502  1.0000
  C   C140      1.0  0.79018  0.89034  0.37502  1.0000
  C   C141      1.0  0.89030  0.95984  0.37502  1.0000
  C   C142      1.0  0.88264  0.97309  0.37502  1.0000
  C   C143      1.0  0.86737  0.97310  0.37502  1.0000
  C   C144      1.0  0.85968  0.95985  0.37502  1.0000
  H   H41       1.0  0.95992  0.84834  0.37501  1.0000
  O   O17       1.0  0.98608  0.85994  0.37501  1.0000
  O   O18       1.0  0.98604  0.89010  0.37501  1.0000
  H   H42       1.0  0.95985  0.90164  0.37502  1.0000
  H   H43       1.0  0.90171  0.79010  0.37501  1.0000
  O   O19       1.0  0.89012  0.76393  0.37501  1.0000
  O   O20       1.0  0.85996  0.76397  0.37501  1.0000
  H   H44       1.0  0.84842  0.79016  0.37501  1.0000
  H   H45       1.0  0.79016  0.84840  0.37502  1.0000
  O   O21       1.0  0.76398  0.85993  0.37502  1.0000
  O   O22       1.0  0.76398  0.89006  0.37502  1.0000
  H   H46       1.0  0.79014  0.90166  0.37502  1.0000
  H   H47       1.0  0.90160  0.95987  0.37502  1.0000
  O   O23       1.0  0.89008  0.98603  0.37502  1.0000
  O   O24       1.0  0.85996  0.98604  0.37502  1.0000
  H   H48       1.0  0.84837  0.95988  0.37502  1.0000
  Ni  Ni3       1.0  0.87501  0.87502  0.37502  1.0000
  C   C145      1.0  0.14061  0.81678  0.37500  1.0000
  C   C146      1.0  0.13281  0.80350  0.37500  1.0000
  C   C147      1.0  0.11735  0.80352  0.37500  1.0000
  C   C148      1.0  0.10955  0.81682  0.37500  1.0000
  C   C149      1.0  0.11763  0.82974  0.37500  1.0000
  C   C150      1.0  0.13254  0.82971  0.37500  1.0000
  C   C151      1.0  0.13722  0.84423  0.37500  1.0000
  N   N25       1.0  0.12506  0.85340  0.37500  1.0000
  C   C152      1.0  0.11293  0.84427  0.37500  1.0000
  N   N26       1.0  0.09848  0.84854  0.37500  1.0000
  C   C153      1.0  0.09422  0.86296  0.37500  1.0000
  N   N27       1.0  0.10335  0.87510  0.37500  1.0000
  C   C154      1.0  0.09420  0.88724  0.37500  1.0000
  C   C155      1.0  0.07969  0.88256  0.37500  1.0000
  C   C156      1.0  0.07969  0.86766  0.37500  1.0000
  N   N28       1.0  0.12495  0.89671  0.37500  1.0000
  C   C157      1.0  0.11281  0.90585  0.37500  1.0000
  N   N29       1.0  0.09842  0.90164  0.37500  1.0000
  C   C158      1.0  0.11749  0.92037  0.37500  1.0000
  C   C159      1.0  0.13239  0.92036  0.37500  1.0000
  C   C160      1.0  0.13709  0.90583  0.37500  1.0000
  C   C161      1.0  0.06677  0.85959  0.37500  1.0000
  C   C162      1.0  0.05349  0.86735  0.37500  1.0000
  C   C163      1.0  0.05348  0.88280  0.37500  1.0000
  C   C164      1.0  0.06675  0.89061  0.37500  1.0000
  C   C165      1.0  0.14046  0.93328  0.37500  1.0000
  C   C166      1.0  0.13269  0.94658  0.37500  1.0000
  C   C167      1.0  0.11724  0.94658  0.37500  1.0000
  C   C168      1.0  0.10944  0.93330  0.37500  1.0000
  N   N30       1.0  0.14667  0.87500  0.37500  1.0000
  C   C169      1.0  0.15578  0.88714  0.37500  1.0000
  N   N31       1.0  0.15151  0.90157  0.37500  1.0000
  C   C170      1.0  0.17033  0.88244  0.37500  1.0000
  C   C171      1.0  0.17034  0.86754  0.37500  1.0000
  C   C172      1.0  0.15583  0.86285  0.37500  1.0000
  C   C173      1.0  0.18328  0.85948  0.37500  1.0000
  C   C174      1.0  0.19657  0.86728  0.37500  1.0000
  C   C175      1.0  0.19654  0.88274  0.37500  1.0000
  C   C176      1.0  0.18323  0.89052  0.37500  1.0000
  N   N32       1.0  0.15162  0.84843  0.37500  1.0000
  H   H49       1.0  0.15193  0.81692  0.37500  1.0000
  H   H50       1.0  0.09823  0.81700  0.37500  1.0000
  H   H51       1.0  0.06694  0.84827  0.37500  1.0000
  H   H52       1.0  0.06690  0.90192  0.37500  1.0000
  H   H53       1.0  0.15177  0.93312  0.37500  1.0000
  H   H54       1.0  0.09812  0.93314  0.37500  1.0000
  H   H55       1.0  0.18314  0.84816  0.37500  1.0000
  H   H56       1.0  0.18306  0.90185  0.37500  1.0000
  C   C177      1.0  0.20988  0.85970  0.37500  1.0000
  C   C178      1.0  0.22313  0.86740  0.37500  1.0000
  C   C179      1.0  0.22311  0.88268  0.37500  1.0000
  C   C180      1.0  0.20983  0.89035  0.37500  1.0000
  C   C181      1.0  0.14040  0.79017  0.37500  1.0000
  C   C182      1.0  0.13270  0.77692  0.37500  1.0000
  C   C183      1.0  0.11742  0.77694  0.37500  1.0000
  C   C184      1.0  0.10975  0.79022  0.37500  1.0000
  C   C185      1.0  0.04019  0.85974  0.37500  1.0000
  C   C186      1.0  0.02692  0.86741  0.37500  1.0000
  C   C187      1.0  0.02692  0.88269  0.37500  1.0000
  C   C188      1.0  0.04018  0.89037  0.37500  1.0000
  C   C189      1.0  0.14030  0.95987  0.37500  1.0000
  C   C190      1.0  0.13264  0.97313  0.37500  1.0000
  C   C191      1.0  0.11737  0.97314  0.37500  1.0000
  C   C192      1.0  0.10968  0.95988  0.37500  1.0000
  H   H57       1.0  0.20992  0.84838  0.37500  1.0000
  O   O25       1.0  0.23608  0.85998  0.37500  1.0000
  O   O26       1.0  0.23604  0.89014  0.37500  1.0000
  H   H58       1.0  0.20985  0.90168  0.37500  1.0000
  H   H59       1.0  0.15172  0.79013  0.37500  1.0000
  O   O27       1.0  0.14013  0.76396  0.37499  1.0000
  O   O28       1.0  0.10997  0.76400  0.37500  1.0000
  H   H60       1.0  0.09843  0.79020  0.37500  1.0000
  H   H61       1.0  0.04016  0.84843  0.37500  1.0000
  O   O29       1.0  0.01398  0.85996  0.37500  1.0000
  O   O30       1.0  0.01398  0.89009  0.37500  1.0000
  H   H62       1.0  0.04014  0.90169  0.37500  1.0000
  H   H63       1.0  0.15160  0.95990  0.37500  1.0000
  O   O31       1.0  0.14007  0.98607  0.37500  1.0000
  O   O32       1.0  0.10996  0.98607  0.37500  1.0000
  H   H64       1.0  0.09837  0.95991  0.37500  1.0000
  Ni  Ni4       1.0  0.12501  0.87505  0.37500  1.0000
  C   C193      1.0  0.14060  0.81678  0.62501  1.0000
  C   C194      1.0  0.13280  0.80350  0.62501  1.0000
  C   C195      1.0  0.11734  0.80352  0.62501  1.0000
  C   C196      1.0  0.10954  0.81683  0.62501  1.0000
  C   C197      1.0  0.11762  0.82974  0.62501  1.0000
  C   C198      1.0  0.13253  0.82971  0.62501  1.0000
  C   C199      1.0  0.13721  0.84423  0.62501  1.0000
  N   N33       1.0  0.12505  0.85340  0.62501  1.0000
  C   C200      1.0  0.11291  0.84427  0.62501  1.0000
  N   N34       1.0  0.09847  0.84854  0.62501  1.0000
  C   C201      1.0  0.09421  0.86296  0.62501  1.0000
  N   N35       1.0  0.10334  0.87510  0.62501  1.0000
  C   C202      1.0  0.09419  0.88724  0.62501  1.0000
  C   C203      1.0  0.07968  0.88256  0.62501  1.0000
  C   C204      1.0  0.07968  0.86766  0.62501  1.0000
  N   N36       1.0  0.12494  0.89671  0.62501  1.0000
  C   C205      1.0  0.11280  0.90585  0.62501  1.0000
  N   N37       1.0  0.09841  0.90164  0.62501  1.0000
  C   C206      1.0  0.11748  0.92037  0.62501  1.0000
  C   C207      1.0  0.13238  0.92036  0.62501  1.0000
  C   C208      1.0  0.13708  0.90583  0.62501  1.0000
  C   C209      1.0  0.06676  0.85959  0.62501  1.0000
  C   C210      1.0  0.05347  0.86736  0.62501  1.0000
  C   C211      1.0  0.05346  0.88280  0.62501  1.0000
  C   C212      1.0  0.06674  0.89061  0.62501  1.0000
  C   C213      1.0  0.14045  0.93328  0.62501  1.0000
  C   C214      1.0  0.13268  0.94658  0.62501  1.0000
  C   C215      1.0  0.11723  0.94658  0.62501  1.0000
  C   C216      1.0  0.10943  0.93330  0.62501  1.0000
  N   N38       1.0  0.14666  0.87500  0.62501  1.0000
  C   C217      1.0  0.15577  0.88714  0.62501  1.0000
  N   N39       1.0  0.15150  0.90157  0.62501  1.0000
  C   C218      1.0  0.17032  0.88244  0.62501  1.0000
  C   C219      1.0  0.17033  0.86754  0.62501  1.0000
  C   C220      1.0  0.15581  0.86285  0.62501  1.0000
  C   C221      1.0  0.18327  0.85948  0.62501  1.0000
  C   C222      1.0  0.19656  0.86728  0.62502  1.0000
  C   C223      1.0  0.19653  0.88274  0.62502  1.0000
  C   C224      1.0  0.18322  0.89052  0.62502  1.0000
  N   N40       1.0  0.15161  0.84843  0.62501  1.0000
  H   H65       1.0  0.15192  0.81692  0.62501  1.0000
  H   H66       1.0  0.09821  0.81700  0.62501  1.0000
  H   H67       1.0  0.06693  0.84827  0.62501  1.0000
  H   H68       1.0  0.06689  0.90192  0.62501  1.0000
  H   H69       1.0  0.15176  0.93312  0.62501  1.0000
  H   H70       1.0  0.09811  0.93314  0.62501  1.0000
  H   H71       1.0  0.18313  0.84816  0.62501  1.0000
  H   H72       1.0  0.18304  0.90184  0.62502  1.0000
  C   C225      1.0  0.20986  0.85970  0.62502  1.0000
  C   C226      1.0  0.22312  0.86740  0.62502  1.0000
  C   C227      1.0  0.22310  0.88268  0.62502  1.0000
  C   C228      1.0  0.20982  0.89035  0.62502  1.0000
  C   C229      1.0  0.14038  0.79017  0.62501  1.0000
  C   C230      1.0  0.13269  0.77692  0.62501  1.0000
  C   C231      1.0  0.11741  0.77694  0.62501  1.0000
  C   C232      1.0  0.10973  0.79022  0.62501  1.0000
  C   C233      1.0  0.04018  0.85974  0.62501  1.0000
  C   C234      1.0  0.02691  0.86741  0.62501  1.0000
  C   C235      1.0  0.02691  0.88269  0.62501  1.0000
  C   C236      1.0  0.04017  0.89038  0.62501  1.0000
  C   C237      1.0  0.14029  0.95987  0.62501  1.0000
  C   C238      1.0  0.13263  0.97313  0.62501  1.0000
  C   C239      1.0  0.11736  0.97314  0.62501  1.0000
  C   C240      1.0  0.10967  0.95988  0.62501  1.0000
  H   H73       1.0  0.20991  0.84838  0.62502  1.0000
  O   O33       1.0  0.23607  0.85998  0.62502  1.0000
  O   O34       1.0  0.23603  0.89013  0.62502  1.0000
  H   H74       1.0  0.20984  0.90168  0.62502  1.0000
  H   H75       1.0  0.15170  0.79013  0.62501  1.0000
  O   O35       1.0  0.14011  0.76396  0.62501  1.0000
  O   O36       1.0  0.10995  0.76400  0.62501  1.0000
  H   H76       1.0  0.09841  0.79020  0.62501  1.0000
  H   H77       1.0  0.04015  0.84843  0.62501  1.0000
  O   O37       1.0  0.01397  0.85997  0.62501  1.0000
  O   O38       1.0  0.01397  0.89009  0.62501  1.0000
  H   H78       1.0  0.04013  0.90169  0.62501  1.0000
  H   H79       1.0  0.15159  0.95990  0.62502  1.0000
  O   O39       1.0  0.14006  0.98607  0.62502  1.0000
  O   O40       1.0  0.10995  0.98607  0.62501  1.0000
  H   H80       1.0  0.09836  0.95991  0.62501  1.0000
  Ni  Ni5       1.0  0.12500  0.87505  0.62501  1.0000
  C   C241      1.0  0.14057  0.06678  0.62503  1.0000
  C   C242      1.0  0.13277  0.05350  0.62503  1.0000
  C   C243      1.0  0.11731  0.05352  0.62502  1.0000
  C   C244      1.0  0.10952  0.06683  0.62502  1.0000
  C   C245      1.0  0.11760  0.07974  0.62503  1.0000
  C   C246      1.0  0.13250  0.07971  0.62503  1.0000
  C   C247      1.0  0.13718  0.09423  0.62503  1.0000
  N   N41       1.0  0.12502  0.10340  0.62503  1.0000
  C   C248      1.0  0.11289  0.09427  0.62503  1.0000
  N   N42       1.0  0.09844  0.09854  0.62502  1.0000
  C   C249      1.0  0.09419  0.11296  0.62502  1.0000
  N   N43       1.0  0.10331  0.12510  0.62502  1.0000
  C   C250      1.0  0.09417  0.13724  0.62502  1.0000
  C   C251      1.0  0.07965  0.13256  0.62502  1.0000
  C   C252      1.0  0.07965  0.11767  0.62502  1.0000
  N   N44       1.0  0.12491  0.14671  0.62503  1.0000
  C   C253      1.0  0.11277  0.15585  0.62503  1.0000
  N   N45       1.0  0.09838  0.15164  0.62502  1.0000
  C   C254      1.0  0.11746  0.17037  0.62503  1.0000
  C   C255      1.0  0.13235  0.17036  0.62503  1.0000
  C   C256      1.0  0.13705  0.15584  0.62503  1.0000
  C   C257      1.0  0.06674  0.10959  0.62502  1.0000
  C   C258      1.0  0.05345  0.11736  0.62502  1.0000
  C   C259      1.0  0.05344  0.13280  0.62502  1.0000
  C   C260      1.0  0.06672  0.14061  0.62502  1.0000
  C   C261      1.0  0.14042  0.18328  0.62503  1.0000
  C   C262      1.0  0.13265  0.19658  0.62503  1.0000
  C   C263      1.0  0.11720  0.19658  0.62503  1.0000
  C   C264      1.0  0.10940  0.18330  0.62503  1.0000
  N   N46       1.0  0.14663  0.12500  0.62503  1.0000
  C   C265      1.0  0.15575  0.13714  0.62503  1.0000
  N   N47       1.0  0.15147  0.15157  0.62503  1.0000
  C   C266      1.0  0.17029  0.13244  0.62503  1.0000
  C   C267      1.0  0.17030  0.11754  0.62503  1.0000
  C   C268      1.0  0.15579  0.11285  0.62503  1.0000
  C   C269      1.0  0.18324  0.10948  0.62503  1.0000
  C   C270      1.0  0.19653  0.11728  0.62503  1.0000
  C   C271      1.0  0.19651  0.13274  0.62503  1.0000
  C   C272      1.0  0.18319  0.14052  0.62503  1.0000
  N   N48       1.0  0.15158  0.09843  0.62503  1.0000
  H   H81       1.0  0.15189  0.06692  0.62503  1.0000
  H   H82       1.0  0.09819  0.06700  0.62502  1.0000
  H   H83       1.0  0.06690  0.09827  0.62502  1.0000
  H   H84       1.0  0.06687  0.15192  0.62502  1.0000
  H   H85       1.0  0.15173  0.18312  0.62503  1.0000
  H   H86       1.0  0.09809  0.18314  0.62503  1.0000
  H   H87       1.0  0.18310  0.09816  0.62503  1.0000
  H   H88       1.0  0.18302  0.15185  0.62503  1.0000
  C   C273      1.0  0.20984  0.10970  0.62503  1.0000
  C   C274      1.0  0.22309  0.11740  0.62503  1.0000
  C   C275      1.0  0.22307  0.13269  0.62503  1.0000
  C   C276      1.0  0.20979  0.14035  0.62503  1.0000
  C   C277      1.0  0.14036  0.04018  0.62503  1.0000
  C   C278      1.0  0.13267  0.02692  0.62503  1.0000
  C   C279      1.0  0.11738  0.02694  0.62502  1.0000
  C   C280      1.0  0.10971  0.04022  0.62502  1.0000
  C   C281      1.0  0.04015  0.10974  0.62502  1.0000
  C   C282      1.0  0.02688  0.11741  0.62502  1.0000
  C   C283      1.0  0.02688  0.13269  0.62502  1.0000
  C   C284      1.0  0.04014  0.14038  0.62502  1.0000
  C   C285      1.0  0.14026  0.20988  0.62503  1.0000
  C   C286      1.0  0.13260  0.22313  0.62503  1.0000
  C   C287      1.0  0.11733  0.22314  0.62503  1.0000
  C   C288      1.0  0.10964  0.20988  0.62503  1.0000
  H   H89       1.0  0.20988  0.09838  0.62503  1.0000
  O   O41       1.0  0.23604  0.10998  0.62503  1.0000
  O   O42       1.0  0.23600  0.14014  0.62503  1.0000
  H   H90       1.0  0.20981  0.15168  0.62503  1.0000
  H   H91       1.0  0.15168  0.04013  0.62503  1.0000
  O   O43       1.0  0.14009  0.01396  0.62503  1.0000
  O   O44       1.0  0.10993  0.01401  0.62502  1.0000
  H   H92       1.0  0.09839  0.04020  0.62502  1.0000
  H   H93       1.0  0.04012  0.09843  0.62502  1.0000
  O   O45       1.0  0.01395  0.10997  0.62502  1.0000
  O   O46       1.0  0.01394  0.14009  0.62502  1.0000
  H   H94       1.0  0.04010  0.15169  0.62502  1.0000
  H   H95       1.0  0.15156  0.20990  0.62503  1.0000
  O   O47       1.0  0.14004  0.23607  0.62503  1.0000
  O   O48       1.0  0.10992  0.23607  0.62503  1.0000
  H   H96       1.0  0.09833  0.20992  0.62503  1.0000
  Ni  Ni6       1.0  0.12497  0.12505  0.62503  1.0000
  C   C289      1.0  0.89057  0.06675  0.62500  1.0000
  C   C290      1.0  0.88277  0.05347  0.62500  1.0000
  C   C291      1.0  0.86731  0.05349  0.62500  1.0000
  C   C292      1.0  0.85951  0.06680  0.62500  1.0000
  C   C293      1.0  0.86759  0.07971  0.62500  1.0000
  C   C294      1.0  0.88250  0.07968  0.62500  1.0000
  C   C295      1.0  0.88718  0.09420  0.62500  1.0000
  N   N49       1.0  0.87502  0.10337  0.62500  1.0000
  C   C296      1.0  0.86289  0.09424  0.62500  1.0000
  N   N50       1.0  0.84844  0.09851  0.62500  1.0000
  C   C297      1.0  0.84419  0.11293  0.62500  1.0000
  N   N51       1.0  0.85331  0.12507  0.62500  1.0000
  C   C298      1.0  0.84417  0.13722  0.62500  1.0000
  C   C299      1.0  0.82965  0.13253  0.62500  1.0000
  C   C300      1.0  0.82965  0.11764  0.62500  1.0000
  N   N52       1.0  0.87492  0.14668  0.62500  1.0000
  C   C301      1.0  0.86278  0.15582  0.62500  1.0000
  N   N53       1.0  0.84838  0.15161  0.62500  1.0000
  C   C302      1.0  0.86746  0.17034  0.62500  1.0000
  C   C303      1.0  0.88235  0.17033  0.62500  1.0000
  C   C304      1.0  0.88705  0.15581  0.62500  1.0000
  C   C305      1.0  0.81674  0.10957  0.62500  1.0000
  C   C306      1.0  0.80345  0.11733  0.62500  1.0000
  C   C307      1.0  0.80344  0.13277  0.62500  1.0000
  C   C308      1.0  0.81672  0.14058  0.62500  1.0000
  C   C309      1.0  0.89043  0.18325  0.62500  1.0000
  C   C310      1.0  0.88265  0.19655  0.62500  1.0000
  C   C311      1.0  0.86721  0.19655  0.62500  1.0000
  C   C312      1.0  0.85941  0.18327  0.62500  1.0000
  N   N54       1.0  0.89664  0.12497  0.62500  1.0000
  C   C313      1.0  0.90575  0.13711  0.62500  1.0000
  N   N55       1.0  0.90148  0.15154  0.62500  1.0000
  C   C314      1.0  0.92029  0.13241  0.62500  1.0000
  C   C315      1.0  0.92030  0.11750  0.62500  1.0000
  C   C316      1.0  0.90579  0.11282  0.62500  1.0000
  C   C317      1.0  0.93325  0.10945  0.62500  1.0000
  C   C318      1.0  0.94653  0.11725  0.62500  1.0000
  C   C319      1.0  0.94651  0.13271  0.62500  1.0000
  C   C320      1.0  0.93320  0.14049  0.62500  1.0000
  N   N56       1.0  0.90158  0.09840  0.62500  1.0000
  H   H97       1.0  0.90189  0.06689  0.62500  1.0000
  H   H98       1.0  0.84819  0.06697  0.62500  1.0000
  H   H99       1.0  0.81691  0.09825  0.62500  1.0000
  H   H100      1.0  0.81687  0.15190  0.62500  1.0000
  H   H101      1.0  0.90174  0.18309  0.62500  1.0000
  H   H102      1.0  0.84809  0.18311  0.62500  1.0000
  H   H103      1.0  0.93310  0.09813  0.62500  1.0000
  H   H104      1.0  0.93302  0.15181  0.62500  1.0000
  C   C321      1.0  0.95984  0.10966  0.62500  1.0000
  C   C322      1.0  0.97309  0.11736  0.62500  1.0000
  C   C323      1.0  0.97307  0.13265  0.62500  1.0000
  C   C324      1.0  0.95979  0.14032  0.62500  1.0000
  C   C325      1.0  0.89035  0.04014  0.62500  1.0000
  C   C326      1.0  0.88266  0.02689  0.62500  1.0000
  C   C327      1.0  0.86738  0.02691  0.62499  1.0000
  C   C328      1.0  0.85971  0.04019  0.62500  1.0000
  C   C329      1.0  0.79015  0.10972  0.62500  1.0000
  C   C330      1.0  0.77689  0.11738  0.62500  1.0000
  C   C331      1.0  0.77689  0.13267  0.62500  1.0000
  C   C332      1.0  0.79014  0.14035  0.62500  1.0000
  C   C333      1.0  0.89026  0.20984  0.62500  1.0000
  C   C334      1.0  0.88261  0.22310  0.62500  1.0000
  C   C335      1.0  0.86734  0.22311  0.62500  1.0000
  C   C336      1.0  0.85965  0.20985  0.62500  1.0000
  H   H105      1.0  0.95988  0.09835  0.62500  1.0000
  O   O49       1.0  0.98604  0.10994  0.62500  1.0000
  O   O50       1.0  0.98600  0.14010  0.62500  1.0000
  H   H106      1.0  0.95981  0.15165  0.62500  1.0000
  H   H107      1.0  0.90167  0.04010  0.62500  1.0000
  O   O51       1.0  0.89008  0.01393  0.62499  1.0000
  O   O52       1.0  0.85992  0.01398  0.62499  1.0000
  H   H108      1.0  0.84838  0.04017  0.62500  1.0000
  H   H109      1.0  0.79012  0.09841  0.62500  1.0000
  O   O53       1.0  0.76395  0.10994  0.62500  1.0000
  O   O54       1.0  0.76395  0.14006  0.62500  1.0000
  H   H110      1.0  0.79011  0.15166  0.62500  1.0000
  H   H111      1.0  0.90156  0.20987  0.62500  1.0000
  O   O55       1.0  0.89004  0.23604  0.62500  1.0000
  O   O56       1.0  0.85993  0.23604  0.62500  1.0000
  H   H112      1.0  0.84834  0.20989  0.62500  1.0000
  Ni  Ni7       1.0  0.87497  0.12502  0.62500  1.0000
  C   C337      1.0  0.89059  0.81675  0.62499  1.0000
  C   C338      1.0  0.88279  0.80347  0.62499  1.0000
  C   C339      1.0  0.86733  0.80349  0.62499  1.0000
  C   C340      1.0  0.85953  0.81680  0.62499  1.0000
  C   C341      1.0  0.86762  0.82971  0.62499  1.0000
  C   C342      1.0  0.88252  0.82968  0.62499  1.0000
  C   C343      1.0  0.88720  0.84420  0.62499  1.0000
  N   N57       1.0  0.87504  0.85337  0.62499  1.0000
  C   C344      1.0  0.86291  0.84424  0.62499  1.0000
  N   N58       1.0  0.84846  0.84851  0.62499  1.0000
  C   C345      1.0  0.84421  0.86293  0.62499  1.0000
  N   N59       1.0  0.85333  0.87507  0.62499  1.0000
  C   C346      1.0  0.84419  0.88722  0.62499  1.0000
  C   C347      1.0  0.82967  0.88253  0.62499  1.0000
  C   C348      1.0  0.82967  0.86764  0.62499  1.0000
  N   N60       1.0  0.87494  0.89668  0.62499  1.0000
  C   C349      1.0  0.86280  0.90582  0.62499  1.0000
  N   N61       1.0  0.84840  0.90161  0.62499  1.0000
  C   C350      1.0  0.86748  0.92034  0.62499  1.0000
  C   C351      1.0  0.88238  0.92033  0.62499  1.0000
  C   C352      1.0  0.88708  0.90580  0.62499  1.0000
  C   C353      1.0  0.81676  0.85957  0.62499  1.0000
  C   C354      1.0  0.80347  0.86733  0.62499  1.0000
  C   C355      1.0  0.80346  0.88277  0.62499  1.0000
  C   C356      1.0  0.81674  0.89058  0.62499  1.0000
  C   C357      1.0  0.89045  0.93325  0.62499  1.0000
  C   C358      1.0  0.88268  0.94655  0.62499  1.0000
  C   C359      1.0  0.86723  0.94655  0.62499  1.0000
  C   C360      1.0  0.85943  0.93327  0.62499  1.0000
  N   N62       1.0  0.89666  0.87497  0.62499  1.0000
  C   C361      1.0  0.90577  0.88711  0.62499  1.0000
  N   N63       1.0  0.90150  0.90154  0.62499  1.0000
  C   C362      1.0  0.92031  0.88241  0.62499  1.0000
  C   C363      1.0  0.92033  0.86750  0.62499  1.0000
  C   C364      1.0  0.90581  0.86282  0.62499  1.0000
  C   C365      1.0  0.93327  0.85945  0.62499  1.0000
  C   C366      1.0  0.94655  0.86725  0.62499  1.0000
  C   C367      1.0  0.94653  0.88270  0.62499  1.0000
  C   C368      1.0  0.93322  0.89049  0.62499  1.0000
  N   N64       1.0  0.90160  0.84840  0.62499  1.0000
  H   H113      1.0  0.90191  0.81689  0.62499  1.0000
  H   H114      1.0  0.84821  0.81697  0.62499  1.0000
  H   H115      1.0  0.81693  0.84825  0.62499  1.0000
  H   H116      1.0  0.81689  0.90190  0.62499  1.0000
  H   H117      1.0  0.90176  0.93309  0.62499  1.0000
  H   H118      1.0  0.84811  0.93311  0.62499  1.0000
  H   H119      1.0  0.93312  0.84812  0.62499  1.0000
  H   H120      1.0  0.93304  0.90181  0.62499  1.0000
  C   C369      1.0  0.95986  0.85966  0.62499  1.0000
  C   C370      1.0  0.97311  0.86736  0.62499  1.0000
  C   C371      1.0  0.97309  0.88265  0.62499  1.0000
  C   C372      1.0  0.95981  0.89031  0.62499  1.0000
  C   C373      1.0  0.89037  0.79014  0.62499  1.0000
  C   C374      1.0  0.88268  0.77689  0.62498  1.0000
  C   C375      1.0  0.86740  0.77691  0.62498  1.0000
  C   C376      1.0  0.85973  0.79019  0.62498  1.0000
  C   C377      1.0  0.79017  0.85972  0.62499  1.0000
  C   C378      1.0  0.77691  0.86738  0.62499  1.0000
  C   C379      1.0  0.77691  0.88267  0.62499  1.0000
  C   C380      1.0  0.79016  0.89035  0.62499  1.0000
  C   C381      1.0  0.89029  0.95984  0.62499  1.0000
  C   C382      1.0  0.88263  0.97310  0.62499  1.0000
  C   C383      1.0  0.86736  0.97311  0.62499  1.0000
  C   C384      1.0  0.85967  0.95985  0.62499  1.0000
  H   H121      1.0  0.95990  0.84834  0.62499  1.0000
  O   O57       1.0  0.98606  0.85994  0.62499  1.0000
  O   O58       1.0  0.98602  0.89010  0.62499  1.0000
  H   H122      1.0  0.95984  0.90164  0.62499  1.0000
  H   H123      1.0  0.90170  0.79010  0.62499  1.0000
  O   O59       1.0  0.89010  0.76393  0.62498  1.0000
  O   O60       1.0  0.85994  0.76398  0.62498  1.0000
  H   H124      1.0  0.84840  0.79017  0.62498  1.0000
  H   H125      1.0  0.79014  0.84841  0.62499  1.0000
  O   O61       1.0  0.76397  0.85994  0.62499  1.0000
  O   O62       1.0  0.76397  0.89007  0.62499  1.0000
  H   H126      1.0  0.79013  0.90166  0.62499  1.0000
  H   H127      1.0  0.90159  0.95987  0.62499  1.0000
  O   O63       1.0  0.89007  0.98604  0.62499  1.0000
  O   O64       1.0  0.85995  0.98604  0.62499  1.0000
  H   H128      1.0  0.84836  0.95989  0.62499  1.0000
  Ni  Ni8       1.0  0.87499  0.87502  0.62499  1.0000
  C   C385      1.0  0.37496  0.18329  0.14058  1.0000
  C   C386      1.0  0.37495  0.19657  0.13277  1.0000
  C   C387      1.0  0.37495  0.19654  0.11731  1.0000
  C   C388      1.0  0.37495  0.18324  0.10952  1.0000
  C   C389      1.0  0.37496  0.17033  0.11760  1.0000
  C   C390      1.0  0.37496  0.17035  0.13251  1.0000
  C   C391      1.0  0.37496  0.15584  0.13719  1.0000
  N   N65       1.0  0.37496  0.14667  0.12503  1.0000
  C   C392      1.0  0.37496  0.15579  0.11289  1.0000
  N   N66       1.0  0.37496  0.15152  0.09845  1.0000
  C   C393      1.0  0.37496  0.13710  0.09419  1.0000
  N   N67       1.0  0.37496  0.12497  0.10332  1.0000
  C   C394      1.0  0.37496  0.11282  0.09418  1.0000
  C   C395      1.0  0.37496  0.11750  0.07966  1.0000
  C   C396      1.0  0.37496  0.13240  0.07966  1.0000
  N   N68       1.0  0.37497  0.10336  0.12493  1.0000
  C   C397      1.0  0.37497  0.09422  0.11279  1.0000
  N   N69       1.0  0.37497  0.09842  0.09839  1.0000
  C   C398      1.0  0.37497  0.07969  0.11747  1.0000
  C   C399      1.0  0.37497  0.07970  0.13237  1.0000
  C   C400      1.0  0.37497  0.09423  0.13707  1.0000
  C   C401      1.0  0.37496  0.14047  0.06675  1.0000
  C   C402      1.0  0.37496  0.13270  0.05346  1.0000
  C   C403      1.0  0.37496  0.11726  0.05345  1.0000
  C   C404      1.0  0.37496  0.10945  0.06673  1.0000
  C   C405      1.0  0.37497  0.06679  0.14044  1.0000
  C   C406      1.0  0.37498  0.05349  0.13267  1.0000
  C   C407      1.0  0.37498  0.05349  0.11722  1.0000
  C   C408      1.0  0.37497  0.06677  0.10942  1.0000
  N   N70       1.0  0.37497  0.12507  0.14664  1.0000
  C   C409      1.0  0.37497  0.11293  0.15576  1.0000
  N   N71       1.0  0.37497  0.09850  0.15149  1.0000
  C   C410      1.0  0.37497  0.11763  0.17030  1.0000
  C   C411      1.0  0.37497  0.13254  0.17031  1.0000
  C   C412      1.0  0.37496  0.13722  0.15580  1.0000
  C   C413      1.0  0.37497  0.14059  0.18325  1.0000
  C   C414      1.0  0.37497  0.13279  0.19654  1.0000
  C   C415      1.0  0.37497  0.11734  0.19651  1.0000
  C   C416      1.0  0.37497  0.10955  0.18321  1.0000
  N   N72       1.0  0.37496  0.15164  0.15159  1.0000
  H   H129      1.0  0.37496  0.18315  0.15189  1.0000
  H   H130      1.0  0.37495  0.18306  0.09819  1.0000
  H   H131      1.0  0.37496  0.15179  0.06691  1.0000
  H   H132      1.0  0.37497  0.09814  0.06688  1.0000
  H   H133      1.0  0.37498  0.06695  0.15175  1.0000
  H   H134      1.0  0.37497  0.06692  0.09811  1.0000
  H   H135      1.0  0.37496  0.15192  0.18311  1.0000
  H   H136      1.0  0.37497  0.09823  0.18303  1.0000
  C   C417      1.0  0.37497  0.14038  0.20984  1.0000
  C   C418      1.0  0.37497  0.13268  0.22310  1.0000
  C   C419      1.0  0.37497  0.11739  0.22308  1.0000
  C   C420      1.0  0.37497  0.10973  0.20980  1.0000
  C   C421      1.0  0.37495  0.20989  0.14035  1.0000
  C   C422      1.0  0.37495  0.22315  0.13266  1.0000
  C   C423      1.0  0.37495  0.22312  0.11738  1.0000
  C   C424      1.0  0.37495  0.20984  0.10971  1.0000
  C   C425      1.0  0.37496  0.14031  0.04016  1.0000
  C   C426      1.0  0.37496  0.13264  0.02690  1.0000
  C   C427      1.0  0.37496  0.11736  0.02690  1.0000
  C   C428      1.0  0.37496  0.10968  0.04015  1.0000
  C   C429      1.0  0.37498  0.04019  0.14028  1.0000
  C   C430      1.0  0.37498  0.02694  0.13263  1.0000
  C   C431      1.0  0.37498  0.02693  0.11736  1.0000
  C   C432      1.0  0.37498  0.04018  0.10967  1.0000
  H   H137      1.0  0.37496  0.15170  0.20988  1.0000
  O   O65       1.0  0.37497  0.14010  0.23605  1.0000
  O   O66       1.0  0.37497  0.10995  0.23601  1.0000
  H   H138      1.0  0.37497  0.09840  0.20982  1.0000
  H   H139      1.0  0.37495  0.20994  0.15168  1.0000
  O   O67       1.0  0.37495  0.23610  0.14008  1.0000
  O   O68       1.0  0.37495  0.23606  0.10992  1.0000
  H   H140      1.0  0.37495  0.20987  0.09839  1.0000
  H   H141      1.0  0.37496  0.15162  0.04013  1.0000
  O   O69       1.0  0.37496  0.14009  0.01396  1.0000
  O   O70       1.0  0.37496  0.10996  0.01396  1.0000
  H   H142      1.0  0.37496  0.09837  0.04012  1.0000
  H   H143      1.0  0.37498  0.04017  0.15158  1.0000
  O   O71       1.0  0.37498  0.01400  0.14006  1.0000
  O   O72       1.0  0.37498  0.01399  0.10995  1.0000
  H   H144      1.0  0.37498  0.04015  0.09835  1.0000
  Ni  Ni9       1.0  0.37496  0.12502  0.12498  1.0000
  C   C433      1.0  0.85939  0.37502  0.06676  1.0000
  C   C434      1.0  0.86719  0.37502  0.05348  1.0000
  C   C435      1.0  0.88266  0.37502  0.05351  1.0000
  C   C436      1.0  0.89045  0.37502  0.06681  1.0000
  C   C437      1.0  0.88237  0.37502  0.07972  1.0000
  C   C438      1.0  0.86746  0.37502  0.07970  1.0000
  C   C439      1.0  0.86278  0.37502  0.09421  1.0000
  N   N73       1.0  0.87494  0.37502  0.10338  1.0000
  C   C440      1.0  0.88708  0.37502  0.09426  1.0000
  N   N74       1.0  0.90152  0.37502  0.09853  1.0000
  C   C441      1.0  0.90578  0.37502  0.11295  1.0000
  N   N75       1.0  0.89665  0.37502  0.12508  1.0000
  C   C442      1.0  0.90579  0.37502  0.13723  1.0000
  C   C443      1.0  0.92031  0.37502  0.13255  1.0000
  C   C444      1.0  0.92031  0.37502  0.11765  1.0000
  N   N76       1.0  0.87504  0.37502  0.14670  1.0000
  C   C445      1.0  0.88718  0.37502  0.15584  1.0000
  N   N77       1.0  0.90158  0.37502  0.15163  1.0000
  C   C446      1.0  0.88250  0.37502  0.17036  1.0000
  C   C447      1.0  0.86761  0.37501  0.17035  1.0000
  C   C448      1.0  0.86291  0.37501  0.15582  1.0000
  C   C449      1.0  0.93323  0.37502  0.10958  1.0000
  C   C450      1.0  0.94651  0.37502  0.11735  1.0000
  C   C451      1.0  0.94652  0.37502  0.13279  1.0000
  C   C452      1.0  0.93324  0.37502  0.14060  1.0000
  C   C453      1.0  0.85953  0.37501  0.18327  1.0000
  C   C454      1.0  0.86730  0.37501  0.19656  1.0000
  C   C455      1.0  0.88275  0.37501  0.19657  1.0000
  C   C456      1.0  0.89055  0.37502  0.18329  1.0000
  N   N78       1.0  0.85333  0.37501  0.12499  1.0000
  C   C457      1.0  0.84421  0.37501  0.13712  1.0000
  N   N79       1.0  0.84848  0.37501  0.15156  1.0000
  C   C458      1.0  0.82967  0.37501  0.13242  1.0000
  C   C459      1.0  0.82966  0.37501  0.11752  1.0000
  C   C460      1.0  0.84417  0.37501  0.11283  1.0000
  C   C461      1.0  0.81672  0.37501  0.10946  1.0000
  C   C462      1.0  0.80343  0.37501  0.11726  1.0000
  C   C463      1.0  0.80345  0.37501  0.13272  1.0000
  C   C464      1.0  0.81676  0.37501  0.14050  1.0000
  N   N80       1.0  0.84838  0.37501  0.09841  1.0000
  H   H145      1.0  0.84807  0.37501  0.06690  1.0000
  H   H146      1.0  0.90178  0.37502  0.06699  1.0000
  H   H147      1.0  0.93306  0.37502  0.09826  1.0000
  H   H148      1.0  0.93309  0.37502  0.15191  1.0000
  H   H149      1.0  0.84822  0.37501  0.18310  1.0000
  H   H150      1.0  0.90187  0.37502  0.18313  1.0000
  H   H151      1.0  0.81686  0.37501  0.09814  1.0000
  H   H152      1.0  0.81694  0.37501  0.15183  1.0000
  C   C465      1.0  0.79012  0.37501  0.10967  1.0000
  C   C466      1.0  0.77687  0.37501  0.11737  1.0000
  C   C467      1.0  0.77689  0.37501  0.13266  1.0000
  C   C468      1.0  0.79017  0.37501  0.14033  1.0000
  C   C469      1.0  0.85961  0.37502  0.04016  1.0000
  C   C470      1.0  0.86730  0.37502  0.02690  1.0000
  C   C471      1.0  0.88259  0.37502  0.02692  1.0000
  C   C472      1.0  0.89026  0.37502  0.04020  1.0000
  C   C473      1.0  0.95981  0.37502  0.10974  1.0000
  C   C474      1.0  0.97308  0.37502  0.11740  1.0000
  C   C475      1.0  0.97308  0.37502  0.13269  1.0000
  C   C476      1.0  0.95982  0.37502  0.14037  1.0000
  C   C477      1.0  0.85969  0.37501  0.20986  1.0000
  C   C478      1.0  0.86735  0.37501  0.22311  1.0000
  C   C479      1.0  0.88262  0.37501  0.22313  1.0000
  C   C480      1.0  0.89031  0.37502  0.20987  1.0000
  H   H153      1.0  0.79008  0.37501  0.09836  1.0000
  O   O73       1.0  0.76392  0.37501  0.10995  1.0000
  O   O74       1.0  0.76396  0.37501  0.14011  1.0000
  H   H154      1.0  0.79015  0.37501  0.15166  1.0000
  H   H155      1.0  0.84829  0.37502  0.04011  1.0000
  O   O75       1.0  0.85989  0.37502  0.01394  1.0000
  O   O76       1.0  0.89004  0.37502  0.01399  1.0000
  H   H156      1.0  0.90158  0.37502  0.04018  1.0000
  H   H157      1.0  0.95984  0.37502  0.09843  1.0000
  O   O77       1.0  0.98602  0.37502  0.10996  1.0000
  O   O78       1.0  0.98602  0.37502  0.14009  1.0000
  H   H158      1.0  0.95985  0.37502  0.15168  1.0000
  H   H159      1.0  0.84839  0.37501  0.20989  1.0000
  O   O79       1.0  0.85991  0.37501  0.23606  1.0000
  O   O80       1.0  0.89003  0.37501  0.23606  1.0000
  H   H160      1.0  0.90162  0.37502  0.20991  1.0000
  Ni  Ni10      1.0  0.87499  0.37502  0.12504  1.0000
  C   C481      1.0  0.62504  0.93326  0.14059  1.0000
  C   C482      1.0  0.62504  0.94654  0.13279  1.0000
  C   C483      1.0  0.62504  0.94651  0.11732  1.0000
  C   C484      1.0  0.62504  0.93321  0.10953  1.0000
  C   C485      1.0  0.62504  0.92030  0.11761  1.0000
  C   C486      1.0  0.62504  0.92032  0.13252  1.0000
  C   C487      1.0  0.62504  0.90580  0.13720  1.0000
  N   N81       1.0  0.62504  0.89664  0.12504  1.0000
  C   C488      1.0  0.62504  0.90576  0.11291  1.0000
  N   N82       1.0  0.62504  0.90149  0.09846  1.0000
  C   C489      1.0  0.62505  0.88707  0.09421  1.0000
  N   N83       1.0  0.62505  0.87493  0.10333  1.0000
  C   C490      1.0  0.62505  0.86279  0.09419  1.0000
  C   C491      1.0  0.62505  0.86747  0.07967  1.0000
  C   C492      1.0  0.62505  0.88236  0.07967  1.0000
  N   N84       1.0  0.62505  0.85332  0.12494  1.0000
  C   C493      1.0  0.62505  0.84418  0.11280  1.0000
  N   N85       1.0  0.62505  0.84839  0.09841  1.0000
  C   C494      1.0  0.62505  0.82966  0.11748  1.0000
  C   C495      1.0  0.62505  0.82967  0.13238  1.0000
  C   C496      1.0  0.62505  0.84420  0.13708  1.0000
  C   C497      1.0  0.62505  0.89043  0.06676  1.0000
  C   C498      1.0  0.62505  0.88267  0.05347  1.0000
  C   C499      1.0  0.62505  0.86723  0.05346  1.0000
  C   C500      1.0  0.62505  0.85942  0.06674  1.0000
  C   C501      1.0  0.62505  0.81676  0.14045  1.0000
  C   C502      1.0  0.62505  0.80346  0.13268  1.0000
  C   C503      1.0  0.62505  0.80346  0.11724  1.0000
  C   C504      1.0  0.62505  0.81674  0.10943  1.0000
  N   N86       1.0  0.62504  0.87503  0.14666  1.0000
  C   C505      1.0  0.62505  0.86290  0.15577  1.0000
  N   N87       1.0  0.62505  0.84846  0.15150  1.0000
  C   C506      1.0  0.62504  0.86760  0.17031  1.0000
  C   C507      1.0  0.62504  0.88250  0.17032  1.0000
  C   C508      1.0  0.62504  0.88719  0.15581  1.0000
  C   C509      1.0  0.62504  0.89056  0.18326  1.0000
  C   C510      1.0  0.62504  0.88276  0.19655  1.0000
  C   C511      1.0  0.62504  0.86730  0.19653  1.0000
  C   C512      1.0  0.62504  0.85952  0.18322  1.0000
  N   N88       1.0  0.62504  0.90160  0.15160  1.0000
  H   H161      1.0  0.62504  0.93312  0.15191  1.0000
  H   H162      1.0  0.62504  0.93303  0.09820  1.0000
  H   H163      1.0  0.62505  0.90175  0.06693  1.0000
  H   H164      1.0  0.62505  0.84810  0.06689  1.0000
  H   H165      1.0  0.62505  0.81692  0.15176  1.0000
  H   H166      1.0  0.62505  0.81689  0.09812  1.0000
  H   H167      1.0  0.62504  0.90188  0.18312  1.0000
  H   H168      1.0  0.62505  0.84820  0.18304  1.0000
  C   C513      1.0  0.62504  0.89035  0.20986  1.0000
  C   C514      1.0  0.62504  0.88265  0.22311  1.0000
  C   C515      1.0  0.62504  0.86736  0.22309  1.0000
  C   C516      1.0  0.62504  0.85970  0.20981  1.0000
  C   C517      1.0  0.62504  0.95986  0.14037  1.0000
  C   C518      1.0  0.62504  0.97312  0.13267  1.0000
  C   C519      1.0  0.62504  0.97309  0.11739  1.0000
  C   C520      1.0  0.62504  0.95981  0.10972  1.0000
  C   C521      1.0  0.62505  0.89028  0.04017  1.0000
  C   C522      1.0  0.62505  0.88261  0.02691  1.0000
  C   C523      1.0  0.62505  0.86733  0.02691  1.0000
  C   C524      1.0  0.62505  0.85965  0.04017  1.0000
  C   C525      1.0  0.62505  0.79016  0.14029  1.0000
  C   C526      1.0  0.62505  0.77691  0.13264  1.0000
  C   C527      1.0  0.62505  0.77690  0.11737  1.0000
  C   C528      1.0  0.62505  0.79015  0.10968  1.0000
  H   H169      1.0  0.62504  0.90166  0.20990  1.0000
  O   O81       1.0  0.62504  0.89007  0.23606  1.0000
  O   O82       1.0  0.62504  0.85991  0.23602  1.0000
  H   H170      1.0  0.62504  0.84836  0.20983  1.0000
  H   H171      1.0  0.62504  0.95990  0.15169  1.0000
  O   O83       1.0  0.62504  0.98607  0.14009  1.0000
  O   O84       1.0  0.62504  0.98603  0.10993  1.0000
  H   H172      1.0  0.62504  0.95983  0.09840  1.0000
  H   H173      1.0  0.62505  0.90159  0.04014  1.0000
  O   O85       1.0  0.62505  0.89006  0.01397  1.0000
  O   O86       1.0  0.62505  0.85993  0.01397  1.0000
  H   H174      1.0  0.62505  0.84834  0.04013  1.0000
  H   H175      1.0  0.62505  0.79013  0.15159  1.0000
  O   O87       1.0  0.62505  0.76397  0.14007  1.0000
  O   O88       1.0  0.62506  0.76396  0.10996  1.0000
  H   H176      1.0  0.62505  0.79012  0.09836  1.0000
  Ni  Ni11      1.0  0.62505  0.87498  0.12499  1.0000
  C   C529      1.0  0.14060  0.62506  0.18328  1.0000
  C   C530      1.0  0.13280  0.62506  0.19656  1.0000
  C   C531      1.0  0.11733  0.62506  0.19653  1.0000
  C   C532      1.0  0.10954  0.62506  0.18323  1.0000
  C   C533      1.0  0.11762  0.62506  0.17032  1.0000
  C   C534      1.0  0.13253  0.62506  0.17034  1.0000
  C   C535      1.0  0.13721  0.62506  0.15583  1.0000
  N   N89       1.0  0.12505  0.62506  0.14666  1.0000
  C   C536      1.0  0.11291  0.62506  0.15578  1.0000
  N   N90       1.0  0.09847  0.62506  0.15152  1.0000
  C   C537      1.0  0.09421  0.62506  0.13709  1.0000
  N   N91       1.0  0.10334  0.62506  0.12496  1.0000
  C   C538      1.0  0.09419  0.62506  0.11281  1.0000
  C   C539      1.0  0.07968  0.62506  0.11749  1.0000
  C   C540      1.0  0.07968  0.62506  0.13239  1.0000
  N   N92       1.0  0.12495  0.62506  0.10334  1.0000
  C   C541      1.0  0.11280  0.62506  0.09420  1.0000
  N   N93       1.0  0.09841  0.62506  0.09841  1.0000
  C   C542      1.0  0.11749  0.62506  0.07968  1.0000
  C   C543      1.0  0.13238  0.62507  0.07969  1.0000
  C   C544      1.0  0.13708  0.62507  0.09422  1.0000
  C   C545      1.0  0.06676  0.62506  0.14046  1.0000
  C   C546      1.0  0.05348  0.62506  0.13269  1.0000
  C   C547      1.0  0.05347  0.62506  0.11725  1.0000
  C   C548      1.0  0.06675  0.62506  0.10944  1.0000
  C   C549      1.0  0.14046  0.62507  0.06677  1.0000
  C   C550      1.0  0.13268  0.62507  0.05348  1.0000
  C   C551      1.0  0.11724  0.62507  0.05347  1.0000
  C   C552      1.0  0.10943  0.62506  0.06675  1.0000
  N   N94       1.0  0.14666  0.62507  0.12505  1.0000
  C   C553      1.0  0.15578  0.62507  0.11292  1.0000
  N   N95       1.0  0.15150  0.62507  0.09848  1.0000
  C   C554      1.0  0.17032  0.62507  0.11762  1.0000
  C   C555      1.0  0.17033  0.62507  0.13252  1.0000
  C   C556      1.0  0.15582  0.62507  0.13721  1.0000
  C   C557      1.0  0.18327  0.62507  0.14058  1.0000
  C   C558      1.0  0.19656  0.62507  0.13278  1.0000
  C   C559      1.0  0.19654  0.62507  0.11732  1.0000
  C   C560      1.0  0.18322  0.62507  0.10954  1.0000
  N   N96       1.0  0.15161  0.62507  0.15162  1.0000
  H   H177      1.0  0.15192  0.62506  0.18314  1.0000
  H   H178      1.0  0.09821  0.62506  0.18305  1.0000
  H   H179      1.0  0.06693  0.62506  0.15178  1.0000
  H   H180      1.0  0.06690  0.62506  0.09813  1.0000
  H   H181      1.0  0.15177  0.62507  0.06694  1.0000
  H   H182      1.0  0.09812  0.62506  0.06691  1.0000
  H   H183      1.0  0.18313  0.62507  0.15190  1.0000
  H   H184      1.0  0.18305  0.62507  0.09821  1.0000
  C   C561      1.0  0.20987  0.62507  0.14036  1.0000
  C   C562      1.0  0.22312  0.62507  0.13266  1.0000
  C   C563      1.0  0.22310  0.62507  0.11738  1.0000
  C   C564      1.0  0.20982  0.62507  0.10971  1.0000
  C   C565      1.0  0.14038  0.62506  0.20988  1.0000
  C   C566      1.0  0.13269  0.62506  0.22314  1.0000
  C   C567      1.0  0.11740  0.62506  0.22312  1.0000
  C   C568      1.0  0.10973  0.62506  0.20984  1.0000
  C   C569      1.0  0.04018  0.62506  0.14031  1.0000
  C   C570      1.0  0.02691  0.62506  0.13264  1.0000
  C   C571      1.0  0.02691  0.62506  0.11736  1.0000
  C   C572      1.0  0.04017  0.62506  0.10967  1.0000
  C   C573      1.0  0.14029  0.62507  0.04018  1.0000
  C   C574      1.0  0.13264  0.62507  0.02693  1.0000
  C   C575      1.0  0.11737  0.62507  0.02691  1.0000
  C   C576      1.0  0.10968  0.62507  0.04017  1.0000
  H   H185      1.0  0.20991  0.62507  0.15168  1.0000
  O   O89       1.0  0.23607  0.62507  0.14009  1.0000
  O   O90       1.0  0.23603  0.62507  0.10993  1.0000
  H   H186      1.0  0.20984  0.62507  0.09838  1.0000
  H   H187      1.0  0.15170  0.62506  0.20993  1.0000
  O   O91       1.0  0.14011  0.62506  0.23610  1.0000
  O   O92       1.0  0.10995  0.62506  0.23605  1.0000
  H   H188      1.0  0.09841  0.62506  0.20986  1.0000
  H   H189      1.0  0.04015  0.62506  0.15162  1.0000
  O   O93       1.0  0.01397  0.62505  0.14008  1.0000
  O   O94       1.0  0.01397  0.62506  0.10996  1.0000
  H   H190      1.0  0.04014  0.62506  0.09836  1.0000
  H   H191      1.0  0.15159  0.62507  0.04015  1.0000
  O   O95       1.0  0.14007  0.62507  0.01398  1.0000
  O   O96       1.0  0.10996  0.62507  0.01398  1.0000
  H   H192      1.0  0.09836  0.62506  0.04013  1.0000
  Ni  Ni12      1.0  0.12500  0.62506  0.12500  1.0000
  C   C577      1.0  0.37504  0.93329  0.89060  1.0000
  C   C578      1.0  0.37504  0.94657  0.88279  1.0000
  C   C579      1.0  0.37504  0.94654  0.86733  1.0000
  C   C580      1.0  0.37504  0.93324  0.85954  1.0000
  C   C581      1.0  0.37504  0.92033  0.86762  1.0000
  C   C582      1.0  0.37504  0.92035  0.88253  1.0000
  C   C583      1.0  0.37505  0.90583  0.88721  1.0000
  N   N97       1.0  0.37505  0.89667  0.87505  1.0000
  C   C584      1.0  0.37504  0.90579  0.86291  1.0000
  N   N98       1.0  0.37504  0.90152  0.84847  1.0000
  C   C585      1.0  0.37504  0.88710  0.84421  1.0000
  N   N99       1.0  0.37505  0.87497  0.85334  1.0000
  C   C586      1.0  0.37505  0.86282  0.84420  1.0000
  C   C587      1.0  0.37504  0.86750  0.82968  1.0000
  C   C588      1.0  0.37504  0.88239  0.82968  1.0000
  N   N100      1.0  0.37505  0.85335  0.87495  1.0000
  C   C589      1.0  0.37505  0.84421  0.86280  1.0000
  N   N101      1.0  0.37505  0.84842  0.84841  1.0000
  C   C590      1.0  0.37505  0.82969  0.86749  1.0000
  C   C591      1.0  0.37505  0.82970  0.88238  1.0000
  C   C592      1.0  0.37505  0.84423  0.88708  1.0000
  C   C593      1.0  0.37504  0.89047  0.81676  1.0000
  C   C594      1.0  0.37504  0.88270  0.80348  1.0000
  C   C595      1.0  0.37504  0.86726  0.80347  1.0000
  C   C596      1.0  0.37504  0.85945  0.81675  1.0000
  C   C597      1.0  0.37506  0.81679  0.89046  1.0000
  C   C598      1.0  0.37506  0.80349  0.88269  1.0000
  C   C599      1.0  0.37506  0.80349  0.86724  1.0000
  C   C600      1.0  0.37505  0.81677  0.85944  1.0000
  N   N102      1.0  0.37505  0.87506  0.89666  1.0000
  C   C601      1.0  0.37505  0.86293  0.90577  1.0000
  N   N103      1.0  0.37505  0.84849  0.90150  1.0000
  C   C602      1.0  0.37505  0.86763  0.92032  1.0000
  C   C603      1.0  0.37505  0.88253  0.92033  1.0000
  C   C604      1.0  0.37505  0.88722  0.90581  1.0000
  C   C605      1.0  0.37505  0.89059  0.93327  1.0000
  C   C606      1.0  0.37505  0.88279  0.94656  1.0000
  C   C607      1.0  0.37505  0.86733  0.94653  1.0000
  C   C608      1.0  0.37505  0.85955  0.93322  1.0000
  N   N104      1.0  0.37505  0.90163  0.90161  1.0000
  H   H193      1.0  0.37504  0.93315  0.90191  1.0000
  H   H194      1.0  0.37504  0.93306  0.84821  1.0000
  H   H195      1.0  0.37504  0.90179  0.81693  1.0000
  H   H196      1.0  0.37505  0.84814  0.81690  1.0000
  H   H197      1.0  0.37506  0.81695  0.90177  1.0000
  H   H198      1.0  0.37505  0.81692  0.84812  1.0000
  H   H199      1.0  0.37505  0.90191  0.93313  1.0000
  H   H200      1.0  0.37506  0.84822  0.93305  1.0000
  C   C609      1.0  0.37505  0.89038  0.95986  1.0000
  C   C610      1.0  0.37506  0.88268  0.97312  1.0000
  C   C611      1.0  0.37506  0.86739  0.97309  1.0000
  C   C612      1.0  0.37506  0.85972  0.95982  1.0000
  C   C613      1.0  0.37504  0.95989  0.89037  1.0000
  C   C614      1.0  0.37504  0.97315  0.88268  1.0000
  C   C615      1.0  0.37504  0.97312  0.86740  1.0000
  C   C616      1.0  0.37504  0.95984  0.85973  1.0000
  C   C617      1.0  0.37504  0.89031  0.79018  1.0000
  C   C618      1.0  0.37504  0.88265  0.77692  1.0000
  C   C619      1.0  0.37504  0.86736  0.77692  1.0000
  C   C620      1.0  0.37504  0.85968  0.79017  1.0000
  C   C621      1.0  0.37506  0.79019  0.89030  1.0000
  C   C622      1.0  0.37506  0.77694  0.88264  1.0000
  C   C623      1.0  0.37506  0.77693  0.86737  1.0000
  C   C624      1.0  0.37506  0.79018  0.85968  1.0000
  H   H201      1.0  0.37505  0.90169  0.95990  1.0000
  O   O97       1.0  0.37506  0.89010  0.98606  1.0000
  O   O98       1.0  0.37506  0.85994  0.98603  1.0000
  H   H202      1.0  0.37506  0.84839  0.95984  1.0000
  H   H203      1.0  0.37504  0.95993  0.90170  1.0000
  O   O99       1.0  0.37504  0.98610  0.89010  1.0000
  O   O100      1.0  0.37503  0.98606  0.85994  1.0000
  H   H204      1.0  0.37504  0.95986  0.84841  1.0000
  H   H205      1.0  0.37504  0.90162  0.79015  1.0000
  O   O101      1.0  0.37504  0.89009  0.76398  1.0000
  O   O102      1.0  0.37504  0.85996  0.76398  1.0000
  H   H206      1.0  0.37504  0.84837  0.79014  1.0000
  H   H207      1.0  0.37506  0.79016  0.90160  1.0000
  O   O103      1.0  0.37506  0.76400  0.89008  1.0000
  O   O104      1.0  0.37506  0.76399  0.85996  1.0000
  H   H208      1.0  0.37506  0.79015  0.84837  1.0000
  Ni  Ni13      1.0  0.37505  0.87501  0.87500  1.0000
  C   C625      1.0  0.10940  0.37506  0.81676  1.0000
  C   C626      1.0  0.11720  0.37506  0.80348  1.0000
  C   C627      1.0  0.13266  0.37506  0.80350  1.0000
  C   C628      1.0  0.14046  0.37506  0.81681  1.0000
  C   C629      1.0  0.13238  0.37506  0.82972  1.0000
  C   C630      1.0  0.11747  0.37506  0.82969  1.0000
  C   C631      1.0  0.11279  0.37506  0.84421  1.0000
  N   N105      1.0  0.12495  0.37506  0.85338  1.0000
  C   C632      1.0  0.13708  0.37506  0.84425  1.0000
  N   N106      1.0  0.15153  0.37506  0.84852  1.0000
  C   C633      1.0  0.15578  0.37506  0.86294  1.0000
  N   N107      1.0  0.14666  0.37506  0.87508  1.0000
  C   C634      1.0  0.15580  0.37506  0.88723  1.0000
  C   C635      1.0  0.17032  0.37506  0.88254  1.0000
  C   C636      1.0  0.17032  0.37506  0.86765  1.0000
  N   N108      1.0  0.12505  0.37506  0.89669  1.0000
  C   C637      1.0  0.13719  0.37506  0.90583  1.0000
  N   N109      1.0  0.15158  0.37506  0.90163  1.0000
  C   C638      1.0  0.13251  0.37506  0.92036  1.0000
  C   C639      1.0  0.11761  0.37506  0.92035  1.0000
  C   C640      1.0  0.11291  0.37506  0.90582  1.0000
  C   C641      1.0  0.18323  0.37506  0.85958  1.0000
  C   C642      1.0  0.19652  0.37506  0.86734  1.0000
  C   C643      1.0  0.19653  0.37506  0.88279  1.0000
  C   C644      1.0  0.18325  0.37506  0.89060  1.0000
  C   C645      1.0  0.10954  0.37506  0.93326  1.0000
  C   C646      1.0  0.11731  0.37506  0.94656  1.0000
  C   C647      1.0  0.13276  0.37506  0.94656  1.0000
  C   C648      1.0  0.14056  0.37506  0.93328  1.0000
  N   N110      1.0  0.10333  0.37506  0.87498  1.0000
  C   C649      1.0  0.09422  0.37506  0.88712  1.0000
  N   N111      1.0  0.09849  0.37506  0.90155  1.0000
  C   C650      1.0  0.07968  0.37506  0.88242  1.0000
  C   C651      1.0  0.07966  0.37506  0.86751  1.0000
  C   C652      1.0  0.09418  0.37506  0.86283  1.0000
  C   C653      1.0  0.06672  0.37506  0.85945  1.0000
  C   C654      1.0  0.05344  0.37506  0.86726  1.0000
  C   C655      1.0  0.05346  0.37506  0.88271  1.0000
  C   C656      1.0  0.06677  0.37506  0.89050  1.0000
  N   N112      1.0  0.09839  0.37506  0.84841  1.0000
  H   H209      1.0  0.09808  0.37506  0.81690  1.0000
  H   H210      1.0  0.15178  0.37506  0.81698  1.0000
  H   H211      1.0  0.18307  0.37506  0.84826  1.0000
  H   H212      1.0  0.18310  0.37506  0.90191  1.0000
  H   H213      1.0  0.09823  0.37506  0.93310  1.0000
  H   H214      1.0  0.15188  0.37506  0.93313  1.0000
  H   H215      1.0  0.06687  0.37506  0.84813  1.0000
  H   H216      1.0  0.06695  0.37506  0.90182  1.0000
  C   C657      1.0  0.04013  0.37506  0.85967  1.0000
  C   C658      1.0  0.02688  0.37505  0.86737  1.0000
  C   C659      1.0  0.02690  0.37506  0.88266  1.0000
  C   C660      1.0  0.04018  0.37506  0.89032  1.0000
  C   C661      1.0  0.10962  0.37506  0.79015  1.0000
  C   C662      1.0  0.11731  0.37506  0.77690  1.0000
  C   C663      1.0  0.13260  0.37506  0.77692  1.0000
  C   C664      1.0  0.14027  0.37506  0.79020  1.0000
  C   C665      1.0  0.20982  0.37506  0.85973  1.0000
  C   C666      1.0  0.22308  0.37506  0.86740  1.0000
  C   C667      1.0  0.22308  0.37506  0.88268  1.0000
  C   C668      1.0  0.20983  0.37506  0.89037  1.0000
  C   C669      1.0  0.10970  0.37506  0.95986  1.0000
  C   C670      1.0  0.11735  0.37506  0.97311  1.0000
  C   C671      1.0  0.13262  0.37506  0.97312  1.0000
  C   C672      1.0  0.14032  0.37506  0.95987  1.0000
  H   H217      1.0  0.04009  0.37506  0.84835  1.0000
  O   O105      1.0  0.01393  0.37505  0.85995  1.0000
  O   O106      1.0  0.01397  0.37505  0.89011  1.0000
  H   H218      1.0  0.04015  0.37506  0.90165  1.0000
  H   H219      1.0  0.09830  0.37506  0.79011  1.0000
  O   O107      1.0  0.10989  0.37506  0.76394  1.0000
  O   O108      1.0  0.14005  0.37506  0.76398  1.0000
  H   H220      1.0  0.15159  0.37506  0.79018  1.0000
  H   H221      1.0  0.20985  0.37506  0.84842  1.0000
  O   O109      1.0  0.23602  0.37506  0.85996  1.0000
  O   O110      1.0  0.23602  0.37506  0.89008  1.0000
  H   H222      1.0  0.20986  0.37506  0.90168  1.0000
  H   H223      1.0  0.09840  0.37506  0.95988  1.0000
  O   O111      1.0  0.10992  0.37506  0.98605  1.0000
  O   O112      1.0  0.14003  0.37506  0.98606  1.0000
  H   H224      1.0  0.15163  0.37506  0.95990  1.0000
  Ni  Ni14      1.0  0.12500  0.37506  0.87503  1.0000
  C   C673      1.0  0.62500  0.06673  0.85944  1.0000
  C   C674      1.0  0.62500  0.05345  0.86724  1.0000
  C   C675      1.0  0.62500  0.05348  0.88270  1.0000
  C   C676      1.0  0.62500  0.06678  0.89050  1.0000
  C   C677      1.0  0.62500  0.07969  0.88242  1.0000
  C   C678      1.0  0.62500  0.07967  0.86751  1.0000
  C   C679      1.0  0.62500  0.09418  0.86283  1.0000
  N   N113      1.0  0.62500  0.10335  0.87499  1.0000
  C   C680      1.0  0.62500  0.09423  0.88712  1.0000
  N   N114      1.0  0.62500  0.09850  0.90157  1.0000
  C   C681      1.0  0.62500  0.11292  0.90582  1.0000
  N   N115      1.0  0.62500  0.12505  0.89669  1.0000
  C   C682      1.0  0.62499  0.13720  0.90584  1.0000
  C   C683      1.0  0.62499  0.13252  0.92035  1.0000
  C   C684      1.0  0.62500  0.11762  0.92036  1.0000
  N   N116      1.0  0.62499  0.14666  0.87509  1.0000
  C   C685      1.0  0.62499  0.15580  0.88723  1.0000
  N   N117      1.0  0.62499  0.15160  0.90162  1.0000
  C   C686      1.0  0.62499  0.17033  0.88255  1.0000
  C   C687      1.0  0.62499  0.17032  0.86765  1.0000
  C   C688      1.0  0.62499  0.15579  0.86295  1.0000
  C   C689      1.0  0.62500  0.10955  0.93327  1.0000
  C   C690      1.0  0.62500  0.11732  0.94656  1.0000
  C   C691      1.0  0.62499  0.13276  0.94657  1.0000
  C   C692      1.0  0.62499  0.14057  0.93329  1.0000
  C   C693      1.0  0.62499  0.18323  0.85958  1.0000
  C   C694      1.0  0.62499  0.19653  0.86735  1.0000
  C   C695      1.0  0.62499  0.19653  0.88280  1.0000
  C   C696      1.0  0.62499  0.18325  0.89060  1.0000
  N   N118      1.0  0.62500  0.12496  0.85337  1.0000
  C   C697      1.0  0.62500  0.13709  0.84426  1.0000
  N   N119      1.0  0.62499  0.15153  0.84853  1.0000
  C   C698      1.0  0.62500  0.13239  0.82972  1.0000
  C   C699      1.0  0.62500  0.11749  0.82971  1.0000
  C   C700      1.0  0.62500  0.11280  0.84422  1.0000
  C   C701      1.0  0.62500  0.10943  0.81677  1.0000
  C   C702      1.0  0.62500  0.11723  0.80348  1.0000
  C   C703      1.0  0.62500  0.13269  0.80350  1.0000
  C   C704      1.0  0.62500  0.14047  0.81681  1.0000
  N   N120      1.0  0.62500  0.09839  0.84843  1.0000
  H   H225      1.0  0.62500  0.06687  0.84812  1.0000
  H   H226      1.0  0.62500  0.06696  0.90182  1.0000
  H   H227      1.0  0.62500  0.09823  0.93310  1.0000
  H   H228      1.0  0.62499  0.15188  0.93314  1.0000
  H   H229      1.0  0.62499  0.18307  0.84827  1.0000
  H   H230      1.0  0.62499  0.18310  0.90191  1.0000
  H   H231      1.0  0.62500  0.09811  0.81691  1.0000
  H   H232      1.0  0.62499  0.15180  0.81699  1.0000
  C   C705      1.0  0.62500  0.10964  0.79017  1.0000
  C   C706      1.0  0.62500  0.11734  0.77692  1.0000
  C   C707      1.0  0.62500  0.13263  0.77694  1.0000
  C   C708      1.0  0.62500  0.14030  0.79022  1.0000
  C   C709      1.0  0.62501  0.04013  0.85966  1.0000
  C   C710      1.0  0.62501  0.02687  0.86735  1.0000
  C   C711      1.0  0.62501  0.02690  0.88264  1.0000
  C   C712      1.0  0.62501  0.04018  0.89031  1.0000
  C   C713      1.0  0.62500  0.10971  0.95986  1.0000
  C   C714      1.0  0.62500  0.11737  0.97312  1.0000
  C   C715      1.0  0.62499  0.13265  0.97312  1.0000
  C   C716      1.0  0.62499  0.14034  0.95986  1.0000
  C   C717      1.0  0.62499  0.20983  0.85974  1.0000
  C   C718      1.0  0.62499  0.22308  0.86739  1.0000
  C   C719      1.0  0.62498  0.22309  0.88266  1.0000
  C   C720      1.0  0.62499  0.20984  0.89036  1.0000
  H   H233      1.0  0.62500  0.09833  0.79013  1.0000
  O   O113      1.0  0.62500  0.10992  0.76397  1.0000
  O   O114      1.0  0.62500  0.14008  0.76401  1.0000
  H   H234      1.0  0.62500  0.15163  0.79020  1.0000
  H   H235      1.0  0.62501  0.04009  0.84834  1.0000
  O   O115      1.0  0.62501  0.01392  0.85993  1.0000
  O   O116      1.0  0.62501  0.01396  0.89009  1.0000
  H   H236      1.0  0.62501  0.04015  0.90163  1.0000
  H   H237      1.0  0.62500  0.09839  0.95989  1.0000
  O   O117      1.0  0.62500  0.10993  0.98606  1.0000
  O   O118      1.0  0.62499  0.14005  0.98606  1.0000
  H   H238      1.0  0.62499  0.15165  0.95990  1.0000
  H   H239      1.0  0.62499  0.20986  0.84844  1.0000
  O   O119      1.0  0.62498  0.23602  0.85996  1.0000
  O   O120      1.0  0.62498  0.23603  0.89007  1.0000
  H   H240      1.0  0.62499  0.20987  0.90167  1.0000
  Ni  Ni15      1.0  0.62500  0.12500  0.87504  1.0000
  C   C721      1.0  0.85942  0.62497  0.81673  1.0000
  C   C722      1.0  0.86723  0.62497  0.80345  1.0000
  C   C723      1.0  0.88269  0.62497  0.80348  1.0000
  C   C724      1.0  0.89048  0.62497  0.81678  1.0000
  C   C725      1.0  0.88240  0.62497  0.82969  1.0000
  C   C726      1.0  0.86749  0.62497  0.82967  1.0000
  C   C727      1.0  0.86281  0.62497  0.84418  1.0000
  N   N121      1.0  0.87497  0.62497  0.85335  1.0000
  C   C728      1.0  0.88711  0.62497  0.84423  1.0000
  N   N122      1.0  0.90155  0.62497  0.84849  1.0000
  C   C729      1.0  0.90581  0.62498  0.86292  1.0000
  N   N123      1.0  0.89668  0.62497  0.87505  1.0000
  C   C730      1.0  0.90583  0.62498  0.88720  1.0000
  C   C731      1.0  0.92034  0.62498  0.88252  1.0000
  C   C732      1.0  0.92034  0.62498  0.86762  1.0000
  N   N124      1.0  0.87507  0.62497  0.89666  1.0000
  C   C733      1.0  0.88722  0.62497  0.90580  1.0000
  N   N125      1.0  0.90161  0.62498  0.90160  1.0000
  C   C734      1.0  0.88253  0.62497  0.92033  1.0000
  C   C735      1.0  0.86764  0.62497  0.92032  1.0000
  C   C736      1.0  0.86294  0.62497  0.90579  1.0000
  C   C737      1.0  0.93326  0.62498  0.85955  1.0000
  C   C738      1.0  0.94655  0.62498  0.86732  1.0000
  C   C739      1.0  0.94655  0.62498  0.88276  1.0000
  C   C740      1.0  0.93327  0.62498  0.89057  1.0000
  C   C741      1.0  0.85956  0.62497  0.93323  1.0000
  C   C742      1.0  0.86733  0.62497  0.94653  1.0000
  C   C743      1.0  0.88278  0.62497  0.94653  1.0000
  C   C744      1.0  0.89058  0.62497  0.93325  1.0000
  N   N126      1.0  0.85336  0.62497  0.87495  1.0000
  C   C745      1.0  0.84424  0.62497  0.88709  1.0000
  N   N127      1.0  0.84852  0.62497  0.90152  1.0000
  C   C746      1.0  0.82970  0.62497  0.88239  1.0000
  C   C747      1.0  0.82969  0.62497  0.86748  1.0000
  C   C748      1.0  0.84421  0.62497  0.86280  1.0000
  C   C749      1.0  0.81675  0.62497  0.85942  1.0000
  C   C750      1.0  0.80346  0.62496  0.86723  1.0000
  C   C751      1.0  0.80349  0.62496  0.88268  1.0000
  C   C752      1.0  0.81680  0.62497  0.89047  1.0000
  N   N128      1.0  0.84841  0.62497  0.84838  1.0000
  H   H241      1.0  0.84811  0.62497  0.81687  1.0000
  H   H242      1.0  0.90181  0.62497  0.81696  1.0000
  H   H243      1.0  0.93309  0.62498  0.84823  1.0000
  H   H244      1.0  0.93312  0.62498  0.90188  1.0000
  H   H245      1.0  0.84825  0.62497  0.93307  1.0000
  H   H246      1.0  0.90190  0.62498  0.93310  1.0000
  H   H247      1.0  0.81689  0.62497  0.84810  1.0000
  H   H248      1.0  0.81697  0.62497  0.90179  1.0000
  C   C753      1.0  0.79016  0.62496  0.85964  1.0000
  C   C754      1.0  0.77690  0.62496  0.86734  1.0000
  C   C755      1.0  0.77692  0.62496  0.88263  1.0000
  C   C756      1.0  0.79020  0.62496  0.89029  1.0000
  C   C757      1.0  0.85965  0.62497  0.79012  1.0000
  C   C758      1.0  0.86734  0.62497  0.77687  1.0000
  C   C759      1.0  0.88262  0.62497  0.77689  1.0000
  C   C760      1.0  0.89029  0.62497  0.79017  1.0000
  C   C761      1.0  0.95985  0.62498  0.85971  1.0000
  C   C762      1.0  0.97311  0.62498  0.86738  1.0000
  C   C763      1.0  0.97311  0.62498  0.88266  1.0000
  C   C764      1.0  0.95985  0.62498  0.89034  1.0000
  C   C765      1.0  0.85972  0.62497  0.95983  1.0000
  C   C766      1.0  0.86738  0.62497  0.97308  1.0000
  C   C767      1.0  0.88265  0.62497  0.97309  1.0000
  C   C768      1.0  0.89034  0.62497  0.95984  1.0000
  H   H249      1.0  0.79012  0.62496  0.84832  1.0000
  O   O121      1.0  0.76395  0.62496  0.85992  1.0000
  O   O122      1.0  0.76399  0.62496  0.89007  1.0000
  H   H250      1.0  0.79018  0.62496  0.90162  1.0000
  H   H251      1.0  0.84833  0.62497  0.79008  1.0000
  O   O123      1.0  0.85992  0.62497  0.76391  1.0000
  O   O124      1.0  0.89008  0.62497  0.76396  1.0000
  H   H252      1.0  0.90162  0.62497  0.79015  1.0000
  H   H253      1.0  0.95988  0.62498  0.84840  1.0000
  O   O125      1.0  0.98605  0.62498  0.85993  1.0000
  O   O126      1.0  0.98605  0.62498  0.89006  1.0000
  H   H254      1.0  0.95988  0.62498  0.90165  1.0000
  H   H255      1.0  0.84842  0.62497  0.95986  1.0000
  O   O127      1.0  0.85994  0.62497  0.98602  1.0000
  O   O128      1.0  0.89005  0.62497  0.98603  1.0000
  H   H256      1.0  0.90165  0.62498  0.95988  1.0000
  Ni  Ni16      1.0  0.87502  0.62497  0.87500  1.0000
  C   C769      1.0  0.14056  0.37504  0.18328  1.0000
  C   C770      1.0  0.13276  0.37504  0.19656  1.0000
  C   C771      1.0  0.11729  0.37504  0.19654  1.0000
  C   C772      1.0  0.10950  0.37504  0.18323  1.0000
  C   C773      1.0  0.11758  0.37504  0.17032  1.0000
  C   C774      1.0  0.13249  0.37504  0.17035  1.0000
  C   C775      1.0  0.13717  0.37504  0.15583  1.0000
  N   N129      1.0  0.12501  0.37504  0.14666  1.0000
  C   C776      1.0  0.11287  0.37504  0.15579  1.0000
  N   N130      1.0  0.09843  0.37504  0.15152  1.0000
  C   C777      1.0  0.09417  0.37504  0.13710  1.0000
  N   N131      1.0  0.10330  0.37504  0.12496  1.0000
  C   C778      1.0  0.09416  0.37504  0.11281  1.0000
  C   C779      1.0  0.07964  0.37504  0.11750  1.0000
  C   C780      1.0  0.07964  0.37504  0.13239  1.0000
  N   N132      1.0  0.12491  0.37504  0.10335  1.0000
  C   C781      1.0  0.11276  0.37504  0.09421  1.0000
  N   N133      1.0  0.09837  0.37504  0.09842  1.0000
  C   C782      1.0  0.11745  0.37505  0.07968  1.0000
  C   C783      1.0  0.13234  0.37505  0.07969  1.0000
  C   C784      1.0  0.13704  0.37505  0.09422  1.0000
  C   C785      1.0  0.06672  0.37504  0.14046  1.0000
  C   C786      1.0  0.05344  0.37504  0.13270  1.0000
  C   C787      1.0  0.05343  0.37504  0.11725  1.0000
  C   C788      1.0  0.06671  0.37504  0.10945  1.0000
  C   C789      1.0  0.14042  0.37505  0.06678  1.0000
  C   C790      1.0  0.13264  0.37505  0.05348  1.0000
  C   C791      1.0  0.11720  0.37505  0.05348  1.0000
  C   C792      1.0  0.10939  0.37505  0.06676  1.0000
  N   N134      1.0  0.14662  0.37504  0.12506  1.0000
  C   C793      1.0  0.15574  0.37505  0.11292  1.0000
  N   N135      1.0  0.15146  0.37505  0.09849  1.0000
  C   C794      1.0  0.17028  0.37505  0.11762  1.0000
  C   C795      1.0  0.17029  0.37504  0.13253  1.0000
  C   C796      1.0  0.15578  0.37504  0.13721  1.0000
  C   C797      1.0  0.18323  0.37504  0.14058  1.0000
  C   C798      1.0  0.19652  0.37505  0.13278  1.0000
  C   C799      1.0  0.19650  0.37505  0.11733  1.0000
  C   C800      1.0  0.18318  0.37505  0.10954  1.0000
  N   N136      1.0  0.15157  0.37504  0.15163  1.0000
  H   H257      1.0  0.15188  0.37504  0.18314  1.0000
  H   H258      1.0  0.09817  0.37504  0.18306  1.0000
  H   H259      1.0  0.06689  0.37504  0.15178  1.0000
  H   H260      1.0  0.06686  0.37504  0.09813  1.0000
  H   H261      1.0  0.15173  0.37505  0.06694  1.0000
  H   H262      1.0  0.09808  0.37505  0.06692  1.0000
  H   H263      1.0  0.18309  0.37504  0.15191  1.0000
  H   H264      1.0  0.18301  0.37505  0.09822  1.0000
  C   C801      1.0  0.20983  0.37505  0.14037  1.0000
  C   C802      1.0  0.22308  0.37505  0.13267  1.0000
  C   C803      1.0  0.22306  0.37505  0.11738  1.0000
  C   C804      1.0  0.20978  0.37505  0.10972  1.0000
  C   C805      1.0  0.14034  0.37504  0.20989  1.0000
  C   C806      1.0  0.13265  0.37504  0.22314  1.0000
  C   C807      1.0  0.11736  0.37504  0.22312  1.0000
  C   C808      1.0  0.10969  0.37504  0.20984  1.0000
  C   C809      1.0  0.04014  0.37504  0.14031  1.0000
  C   C810      1.0  0.02687  0.37504  0.13264  1.0000
  C   C811      1.0  0.02687  0.37504  0.11736  1.0000
  C   C812      1.0  0.04013  0.37504  0.10968  1.0000
  C   C813      1.0  0.14025  0.37505  0.04018  1.0000
  C   C814      1.0  0.13260  0.37505  0.02693  1.0000
  C   C815      1.0  0.11733  0.37505  0.02692  1.0000
  C   C816      1.0  0.10964  0.37505  0.04017  1.0000
  H   H265      1.0  0.20987  0.37505  0.15169  1.0000
  O   O129      1.0  0.23603  0.37505  0.14009  1.0000
  O   O130      1.0  0.23599  0.37505  0.10993  1.0000
  H   H266      1.0  0.20980  0.37505  0.09838  1.0000
  H   H267      1.0  0.15166  0.37504  0.20993  1.0000
  O   O131      1.0  0.14007  0.37504  0.23610  1.0000
  O   O132      1.0  0.10991  0.37504  0.23606  1.0000
  H   H268      1.0  0.09837  0.37504  0.20986  1.0000
  H   H269      1.0  0.04011  0.37504  0.15162  1.0000
  O   O133      1.0  0.01393  0.37504  0.14009  1.0000
  O   O134      1.0  0.01393  0.37504  0.10996  1.0000
  H   H270      1.0  0.04010  0.37504  0.09836  1.0000
  H   H271      1.0  0.15155  0.37505  0.04016  1.0000
  O   O135      1.0  0.14003  0.37505  0.01399  1.0000
  O   O136      1.0  0.10992  0.37505  0.01398  1.0000
  H   H272      1.0  0.09832  0.37505  0.04014  1.0000
  Ni  Ni17      1.0  0.12496  0.37504  0.12501  1.0000
  C   C817      1.0  0.14060  0.62505  0.93327  1.0000
  C   C818      1.0  0.13279  0.62505  0.94655  1.0000
  C   C819      1.0  0.11733  0.62505  0.94652  1.0000
  C   C820      1.0  0.10954  0.62505  0.93321  1.0000
  C   C821      1.0  0.11762  0.62505  0.92031  1.0000
  C   C822      1.0  0.13253  0.62505  0.92033  1.0000
  C   C823      1.0  0.13721  0.62505  0.90581  1.0000
  N   N137      1.0  0.12505  0.62505  0.89665  1.0000
  C   C824      1.0  0.11292  0.62505  0.90577  1.0000
  N   N138      1.0  0.09847  0.62505  0.90150  1.0000
  C   C825      1.0  0.09422  0.62505  0.88708  1.0000
  N   N139      1.0  0.10334  0.62505  0.87494  1.0000
  C   C826      1.0  0.09420  0.62504  0.86279  1.0000
  C   C827      1.0  0.07968  0.62504  0.86748  1.0000
  C   C828      1.0  0.07968  0.62504  0.88237  1.0000
  N   N140      1.0  0.12495  0.62505  0.85333  1.0000
  C   C829      1.0  0.11281  0.62505  0.84419  1.0000
  N   N141      1.0  0.09842  0.62504  0.84840  1.0000
  C   C830      1.0  0.11750  0.62505  0.82967  1.0000
  C   C831      1.0  0.13239  0.62505  0.82968  1.0000
  C   C832      1.0  0.13709  0.62505  0.84421  1.0000
  C   C833      1.0  0.06677  0.62504  0.89044  1.0000
  C   C834      1.0  0.05348  0.62504  0.88267  1.0000
  C   C835      1.0  0.05347  0.62504  0.86723  1.0000
  C   C836      1.0  0.06675  0.62504  0.85942  1.0000
  C   C837      1.0  0.14047  0.62505  0.81676  1.0000
  C   C838      1.0  0.13269  0.62505  0.80346  1.0000
  C   C839      1.0  0.11725  0.62504  0.80346  1.0000
  C   C840      1.0  0.10944  0.62504  0.81674  1.0000
  N   N142      1.0  0.14667  0.62505  0.87504  1.0000
  C   C841      1.0  0.15578  0.62505  0.86291  1.0000
  N   N143      1.0  0.15151  0.62505  0.84847  1.0000
  C   C842      1.0  0.17032  0.62505  0.86761  1.0000
  C   C843      1.0  0.17034  0.62505  0.88251  1.0000
  C   C844      1.0  0.15582  0.62505  0.88720  1.0000
  C   C845      1.0  0.18328  0.62506  0.89057  1.0000
  C   C846      1.0  0.19656  0.62506  0.88277  1.0000
  C   C847      1.0  0.19654  0.62506  0.86732  1.0000
  C   C848      1.0  0.18323  0.62505  0.85953  1.0000
  N   N144      1.0  0.15161  0.62505  0.90161  1.0000
  H   H273      1.0  0.15192  0.62506  0.93313  1.0000
  H   H274      1.0  0.09821  0.62505  0.93304  1.0000
  H   H275      1.0  0.06693  0.62504  0.90176  1.0000
  H   H276      1.0  0.06690  0.62504  0.84811  1.0000
  H   H277      1.0  0.15178  0.62505  0.81693  1.0000
  H   H278      1.0  0.09813  0.62504  0.81690  1.0000
  H   H279      1.0  0.18313  0.62506  0.90189  1.0000
  H   H280      1.0  0.18305  0.62505  0.84820  1.0000
  C   C849      1.0  0.20987  0.62506  0.89036  1.0000
  C   C850      1.0  0.22312  0.62506  0.88266  1.0000
  C   C851      1.0  0.22310  0.62506  0.86737  1.0000
  C   C852      1.0  0.20983  0.62506  0.85971  1.0000
  C   C853      1.0  0.14038  0.62506  0.95987  1.0000
  C   C854      1.0  0.13268  0.62506  0.97313  1.0000
  C   C855      1.0  0.11740  0.62505  0.97310  1.0000
  C   C856      1.0  0.10973  0.62505  0.95982  1.0000
  C   C857      1.0  0.04018  0.62504  0.89028  1.0000
  C   C858      1.0  0.02692  0.62504  0.88262  1.0000
  C   C859      1.0  0.02692  0.62504  0.86733  1.0000
  C   C860      1.0  0.04017  0.62504  0.85965  1.0000
  C   C861      1.0  0.14031  0.62505  0.79017  1.0000
  C   C862      1.0  0.13265  0.62504  0.77691  1.0000
  C   C863      1.0  0.11738  0.62504  0.77690  1.0000
  C   C864      1.0  0.10969  0.62504  0.79016  1.0000
  H   H281      1.0  0.20991  0.62506  0.90168  1.0000
  O   O137      1.0  0.23607  0.62506  0.89008  1.0000
  O   O138      1.0  0.23604  0.62506  0.85993  1.0000
  H   H282      1.0  0.20985  0.62506  0.84838  1.0000
  H   H283      1.0  0.15170  0.62506  0.95992  1.0000
  O   O139      1.0  0.14010  0.62506  0.98608  1.0000
  O   O140      1.0  0.10994  0.62505  0.98604  1.0000
  H   H284      1.0  0.09841  0.62505  0.95984  1.0000
  H   H285      1.0  0.04015  0.62504  0.90160  1.0000
  O   O141      1.0  0.01398  0.62504  0.89006  1.0000
  O   O142      1.0  0.01398  0.62504  0.85993  1.0000
  H   H286      1.0  0.04014  0.62504  0.84834  1.0000
  H   H287      1.0  0.15161  0.62505  0.79014  1.0000
  O   O143      1.0  0.14009  0.62504  0.76397  1.0000
  O   O144      1.0  0.10997  0.62504  0.76396  1.0000
  H   H288      1.0  0.09838  0.62504  0.79012  1.0000
  Ni  Ni18      1.0  0.12500  0.62505  0.87499  1.0000
  C   C865      1.0  0.37496  0.06677  0.85943  1.0000
  C   C866      1.0  0.37496  0.05349  0.86723  1.0000
  C   C867      1.0  0.37496  0.05352  0.88269  1.0000
  C   C868      1.0  0.37496  0.06682  0.89048  1.0000
  C   C869      1.0  0.37496  0.07973  0.88240  1.0000
  C   C870      1.0  0.37496  0.07971  0.86749  1.0000
  C   C871      1.0  0.37496  0.09423  0.86282  1.0000
  N   N145      1.0  0.37496  0.10339  0.87497  1.0000
  C   C872      1.0  0.37496  0.09427  0.88711  1.0000
  N   N146      1.0  0.37496  0.09854  0.90155  1.0000
  C   C873      1.0  0.37496  0.11296  0.90581  1.0000
  N   N147      1.0  0.37495  0.12509  0.89668  1.0000
  C   C874      1.0  0.37495  0.13724  0.90583  1.0000
  C   C875      1.0  0.37495  0.13256  0.92034  1.0000
  C   C876      1.0  0.37496  0.11766  0.92035  1.0000
  N   N148      1.0  0.37495  0.14671  0.87508  1.0000
  C   C877      1.0  0.37495  0.15584  0.88722  1.0000
  N   N149      1.0  0.37495  0.15164  0.90161  1.0000
  C   C878      1.0  0.37495  0.17037  0.88254  1.0000
  C   C879      1.0  0.37495  0.17036  0.86764  1.0000
  C   C880      1.0  0.37495  0.15583  0.86294  1.0000
  C   C881      1.0  0.37496  0.10959  0.93326  1.0000
  C   C882      1.0  0.37495  0.11736  0.94655  1.0000
  C   C883      1.0  0.37495  0.13280  0.94656  1.0000
  C   C884      1.0  0.37495  0.14061  0.93328  1.0000
  C   C885      1.0  0.37495  0.18327  0.85957  1.0000
  C   C886      1.0  0.37495  0.19657  0.86734  1.0000
  C   C887      1.0  0.37495  0.19657  0.88279  1.0000
  C   C888      1.0  0.37495  0.18329  0.89059  1.0000
  N   N150      1.0  0.37496  0.12500  0.85336  1.0000
  C   C889      1.0  0.37495  0.13713  0.84425  1.0000
  N   N151      1.0  0.37495  0.15157  0.84852  1.0000
  C   C890      1.0  0.37496  0.13243  0.82971  1.0000
  C   C891      1.0  0.37496  0.11753  0.82969  1.0000
  C   C892      1.0  0.37496  0.11284  0.84421  1.0000
  C   C893      1.0  0.37496  0.10947  0.81675  1.0000
  C   C894      1.0  0.37496  0.11727  0.80347  1.0000
  C   C895      1.0  0.37496  0.13273  0.80349  1.0000
  C   C896      1.0  0.37496  0.14051  0.81680  1.0000
  N   N152      1.0  0.37496  0.09843  0.84842  1.0000
  H   H289      1.0  0.37496  0.06691  0.84811  1.0000
  H   H290      1.0  0.37496  0.06700  0.90181  1.0000
  H   H291      1.0  0.37496  0.09827  0.93309  1.0000
  H   H292      1.0  0.37495  0.15192  0.93313  1.0000
  H   H293      1.0  0.37495  0.18311  0.84826  1.0000
  H   H294      1.0  0.37495  0.18314  0.90191  1.0000
  H   H295      1.0  0.37496  0.09815  0.81690  1.0000
  H   H296      1.0  0.37495  0.15184  0.81698  1.0000
  C   C897      1.0  0.37496  0.10969  0.79016  1.0000
  C   C898      1.0  0.37496  0.11739  0.77691  1.0000
  C   C899      1.0  0.37496  0.13267  0.77693  1.0000
  C   C900      1.0  0.37496  0.14034  0.79021  1.0000
  C   C901      1.0  0.37497  0.04017  0.85965  1.0000
  C   C902      1.0  0.37497  0.02691  0.86734  1.0000
  C   C903      1.0  0.37497  0.02694  0.88262  1.0000
  C   C904      1.0  0.37497  0.04022  0.89029  1.0000
  C   C905      1.0  0.37496  0.10974  0.95985  1.0000
  C   C906      1.0  0.37495  0.11741  0.97311  1.0000
  C   C907      1.0  0.37495  0.13269  0.97311  1.0000
  C   C908      1.0  0.37495  0.14038  0.95985  1.0000
  C   C909      1.0  0.37495  0.20987  0.85973  1.0000
  C   C910      1.0  0.37494  0.22312  0.86739  1.0000
  C   C911      1.0  0.37494  0.22313  0.88265  1.0000
  C   C912      1.0  0.37494  0.20988  0.89035  1.0000
  H   H297      1.0  0.37496  0.09837  0.79012  1.0000
  O   O145      1.0  0.37496  0.10997  0.76396  1.0000
  O   O146      1.0  0.37496  0.14012  0.76400  1.0000
  H   H298      1.0  0.37495  0.15167  0.79019  1.0000
  H   H299      1.0  0.37497  0.04013  0.84833  1.0000
  O   O147      1.0  0.37497  0.01396  0.85992  1.0000
  O   O148      1.0  0.37497  0.01400  0.89008  1.0000
  H   H300      1.0  0.37497  0.04019  0.90161  1.0000
  H   H301      1.0  0.37496  0.09843  0.95988  1.0000
  O   O149      1.0  0.37495  0.10997  0.98605  1.0000
  O   O150      1.0  0.37495  0.14009  0.98605  1.0000
  H   H302      1.0  0.37495  0.15169  0.95989  1.0000
  H   H303      1.0  0.37495  0.20990  0.84843  1.0000
  O   O151      1.0  0.37494  0.23606  0.85995  1.0000
  O   O152      1.0  0.37494  0.23607  0.89006  1.0000
  H   H304      1.0  0.37494  0.20991  0.90166  1.0000
  Ni  Ni19      1.0  0.37496  0.12505  0.87503  1.0000
  C   C913      1.0  0.85939  0.37501  0.81675  1.0000
  C   C914      1.0  0.86720  0.37501  0.80347  1.0000
  C   C915      1.0  0.88266  0.37501  0.80350  1.0000
  C   C916      1.0  0.89045  0.37501  0.81681  1.0000
  C   C917      1.0  0.88237  0.37501  0.82972  1.0000
  C   C918      1.0  0.86746  0.37501  0.82969  1.0000
  C   C919      1.0  0.86278  0.37501  0.84421  1.0000
  N   N153      1.0  0.87494  0.37501  0.85338  1.0000
  C   C920      1.0  0.88708  0.37501  0.84425  1.0000
  N   N154      1.0  0.90152  0.37501  0.84852  1.0000
  C   C921      1.0  0.90578  0.37502  0.86294  1.0000
  N   N155      1.0  0.89665  0.37501  0.87508  1.0000
  C   C922      1.0  0.90580  0.37502  0.88723  1.0000
  C   C923      1.0  0.92031  0.37502  0.88254  1.0000
  C   C924      1.0  0.92032  0.37502  0.86765  1.0000
  N   N156      1.0  0.87505  0.37501  0.89669  1.0000
  C   C925      1.0  0.88719  0.37501  0.90583  1.0000
  N   N157      1.0  0.90158  0.37502  0.90162  1.0000
  C   C926      1.0  0.88250  0.37501  0.92036  1.0000
  C   C927      1.0  0.86761  0.37501  0.92034  1.0000
  C   C928      1.0  0.86291  0.37501  0.90582  1.0000
  C   C929      1.0  0.93323  0.37502  0.85958  1.0000
  C   C930      1.0  0.94652  0.37502  0.86734  1.0000
  C   C931      1.0  0.94653  0.37502  0.88279  1.0000
  C   C932      1.0  0.93325  0.37502  0.89060  1.0000
  C   C933      1.0  0.85953  0.37501  0.93326  1.0000
  C   C934      1.0  0.86731  0.37501  0.94656  1.0000
  C   C935      1.0  0.88275  0.37501  0.94656  1.0000
  C   C936      1.0  0.89056  0.37502  0.93328  1.0000
  N   N158      1.0  0.85333  0.37501  0.87498  1.0000
  C   C937      1.0  0.84422  0.37501  0.88712  1.0000
  N   N159      1.0  0.84849  0.37501  0.90155  1.0000
  C   C938      1.0  0.82967  0.37501  0.88242  1.0000
  C   C939      1.0  0.82966  0.37501  0.86751  1.0000
  C   C940      1.0  0.84418  0.37501  0.86283  1.0000
  C   C941      1.0  0.81672  0.37500  0.85945  1.0000
  C   C942      1.0  0.80343  0.37500  0.86725  1.0000
  C   C943      1.0  0.80346  0.37500  0.88271  1.0000
  C   C944      1.0  0.81677  0.37501  0.89049  1.0000
  N   N160      1.0  0.84838  0.37501  0.84841  1.0000
  H   H305      1.0  0.84808  0.37501  0.81690  1.0000
  H   H306      1.0  0.90178  0.37501  0.81698  1.0000
  H   H307      1.0  0.93306  0.37502  0.84826  1.0000
  H   H308      1.0  0.93309  0.37502  0.90191  1.0000
  H   H309      1.0  0.84822  0.37501  0.93310  1.0000
  H   H310      1.0  0.90187  0.37502  0.93313  1.0000
  H   H311      1.0  0.81686  0.37500  0.84813  1.0000
  H   H312      1.0  0.81694  0.37501  0.90182  1.0000
  C   C945      1.0  0.79013  0.37500  0.85967  1.0000
  C   C946      1.0  0.77687  0.37500  0.86737  1.0000
  C   C947      1.0  0.77689  0.37500  0.88265  1.0000
  C   C948      1.0  0.79017  0.37500  0.89032  1.0000
  C   C949      1.0  0.85962  0.37501  0.79015  1.0000
  C   C950      1.0  0.86731  0.37501  0.77690  1.0000
  C   C951      1.0  0.88259  0.37501  0.77692  1.0000
  C   C952      1.0  0.89026  0.37501  0.79020  1.0000
  C   C953      1.0  0.95982  0.37502  0.85973  1.0000
  C   C954      1.0  0.97308  0.37502  0.86740  1.0000
  C   C955      1.0  0.97308  0.37502  0.88268  1.0000
  C   C956      1.0  0.95982  0.37502  0.89037  1.0000
  C   C957      1.0  0.85969  0.37501  0.95986  1.0000
  C   C958      1.0  0.86735  0.37501  0.97311  1.0000
  C   C959      1.0  0.88262  0.37502  0.97312  1.0000
  C   C960      1.0  0.89031  0.37502  0.95987  1.0000
  H   H313      1.0  0.79009  0.37500  0.84835  1.0000
  O   O153      1.0  0.76392  0.37500  0.85995  1.0000
  O   O154      1.0  0.76396  0.37500  0.89010  1.0000
  H   H314      1.0  0.79015  0.37500  0.90165  1.0000
  H   H315      1.0  0.84829  0.37501  0.79011  1.0000
  O   O155      1.0  0.85989  0.37501  0.76394  1.0000
  O   O156      1.0  0.89005  0.37501  0.76398  1.0000
  H   H316      1.0  0.90159  0.37501  0.79018  1.0000
  H   H317      1.0  0.95985  0.37502  0.84842  1.0000
  O   O157      1.0  0.98602  0.37503  0.85996  1.0000
  O   O158      1.0  0.98602  0.37503  0.89008  1.0000
  H   H318      1.0  0.95986  0.37502  0.90168  1.0000
  H   H319      1.0  0.84839  0.37501  0.95988  1.0000
  O   O159      1.0  0.85991  0.37501  0.98605  1.0000
  O   O160      1.0  0.89003  0.37502  0.98606  1.0000
  H   H320      1.0  0.90162  0.37502  0.95990  1.0000
  Ni  Ni20      1.0  0.87499  0.37501  0.87503  1.0000
  C   C961      1.0  0.62505  0.81673  0.85943  1.0000
  C   C962      1.0  0.62505  0.80345  0.86723  1.0000
  C   C963      1.0  0.62505  0.80348  0.88269  1.0000
  C   C964      1.0  0.62505  0.81678  0.89049  1.0000
  C   C965      1.0  0.62505  0.82969  0.88241  1.0000
  C   C966      1.0  0.62505  0.82967  0.86750  1.0000
  C   C967      1.0  0.62505  0.84418  0.86282  1.0000
  N   N161      1.0  0.62505  0.85335  0.87498  1.0000
  C   C968      1.0  0.62505  0.84423  0.88711  1.0000
  N   N162      1.0  0.62505  0.84849  0.90156  1.0000
  C   C969      1.0  0.62505  0.86292  0.90581  1.0000
  N   N163      1.0  0.62505  0.87505  0.89669  1.0000
  C   C970      1.0  0.62505  0.88720  0.90583  1.0000
  C   C971      1.0  0.62505  0.88251  0.92035  1.0000
  C   C972      1.0  0.62505  0.86762  0.92035  1.0000
  N   N164      1.0  0.62505  0.89666  0.87508  1.0000
  C   C973      1.0  0.62505  0.90580  0.88722  1.0000
  N   N165      1.0  0.62505  0.90160  0.90162  1.0000
  C   C974      1.0  0.62505  0.92033  0.88254  1.0000
  C   C975      1.0  0.62504  0.92032  0.86764  1.0000
  C   C976      1.0  0.62504  0.90579  0.86295  1.0000
  C   C977      1.0  0.62505  0.85955  0.93326  1.0000
  C   C978      1.0  0.62505  0.86732  0.94655  1.0000
  C   C979      1.0  0.62505  0.88276  0.94656  1.0000
  C   C980      1.0  0.62505  0.89057  0.93328  1.0000
  C   C981      1.0  0.62504  0.93323  0.85957  1.0000
  C   C982      1.0  0.62504  0.94653  0.86734  1.0000
  C   C983      1.0  0.62504  0.94653  0.88279  1.0000
  C   C984      1.0  0.62505  0.93325  0.89059  1.0000
  N   N166      1.0  0.62505  0.87496  0.85336  1.0000
  C   C985      1.0  0.62504  0.88709  0.84425  1.0000
  N   N167      1.0  0.62504  0.90153  0.84852  1.0000
  C   C986      1.0  0.62504  0.88239  0.82971  1.0000
  C   C987      1.0  0.62504  0.86749  0.82970  1.0000
  C   C988      1.0  0.62505  0.86280  0.84421  1.0000
  C   C989      1.0  0.62504  0.85943  0.81676  1.0000
  C   C990      1.0  0.62504  0.86723  0.80347  1.0000
  C   C991      1.0  0.62504  0.88269  0.80349  1.0000
  C   C992      1.0  0.62504  0.89047  0.81680  1.0000
  N   N168      1.0  0.62505  0.84839  0.84842  1.0000
  H   H321      1.0  0.62505  0.81687  0.84811  1.0000
  H   H322      1.0  0.62505  0.81696  0.90181  1.0000
  H   H323      1.0  0.62505  0.84823  0.93309  1.0000
  H   H324      1.0  0.62505  0.90188  0.93313  1.0000
  H   H325      1.0  0.62504  0.93307  0.84826  1.0000
  H   H326      1.0  0.62505  0.93310  0.90191  1.0000
  H   H327      1.0  0.62504  0.84811  0.81690  1.0000
  H   H328      1.0  0.62504  0.90180  0.81698  1.0000
  C   C993      1.0  0.62504  0.85965  0.79016  1.0000
  C   C994      1.0  0.62504  0.86735  0.77691  1.0000
  C   C995      1.0  0.62504  0.88263  0.77693  1.0000
  C   C996      1.0  0.62504  0.89030  0.79021  1.0000
  C   C997      1.0  0.62505  0.79013  0.85965  1.0000
  C   C998      1.0  0.62505  0.77687  0.86734  1.0000
  C   C999      1.0  0.62505  0.77690  0.88263  1.0000
  C   C1000     1.0  0.62505  0.79018  0.89030  1.0000
  C   C1001     1.0  0.62505  0.85970  0.95985  1.0000
  C   C1002     1.0  0.62505  0.86737  0.97311  1.0000
  C   C1003     1.0  0.62505  0.88265  0.97311  1.0000
  C   C1004     1.0  0.62505  0.89034  0.95986  1.0000
  C   C1005     1.0  0.62504  0.95983  0.85973  1.0000
  C   C1006     1.0  0.62504  0.97308  0.86739  1.0000
  C   C1007     1.0  0.62504  0.97309  0.88266  1.0000
  C   C1008     1.0  0.62504  0.95984  0.89035  1.0000
  H   H329      1.0  0.62504  0.84833  0.79012  1.0000
  O   O161      1.0  0.62504  0.85993  0.76396  1.0000
  O   O162      1.0  0.62504  0.89008  0.76400  1.0000
  H   H330      1.0  0.62504  0.90163  0.79019  1.0000
  H   H331      1.0  0.62505  0.79009  0.84833  1.0000
  O   O163      1.0  0.62505  0.76392  0.85992  1.0000
  O   O164      1.0  0.62505  0.76396  0.89008  1.0000
  H   H332      1.0  0.62505  0.79015  0.90162  1.0000
  H   H333      1.0  0.62505  0.84839  0.95988  1.0000
  O   O165      1.0  0.62505  0.85993  0.98605  1.0000
  O   O166      1.0  0.62505  0.89005  0.98605  1.0000
  H   H334      1.0  0.62505  0.90165  0.95989  1.0000
  H   H335      1.0  0.62504  0.95986  0.84843  1.0000
  O   O167      1.0  0.62504  0.98602  0.85995  1.0000
  O   O168      1.0  0.62504  0.98603  0.89007  1.0000
  H   H336      1.0  0.62504  0.95987  0.90166  1.0000
  Ni  Ni21      1.0  0.62505  0.87500  0.87503  1.0000
  C   C1009     1.0  0.85943  0.62499  0.06674  1.0000
  C   C1010     1.0  0.86723  0.62499  0.05346  1.0000
  C   C1011     1.0  0.88269  0.62499  0.05348  1.0000
  C   C1012     1.0  0.89048  0.62499  0.06679  1.0000
  C   C1013     1.0  0.88240  0.62499  0.07970  1.0000
  C   C1014     1.0  0.86749  0.62499  0.07967  1.0000
  C   C1015     1.0  0.86282  0.62499  0.09419  1.0000
  N   N169      1.0  0.87497  0.62499  0.10336  1.0000
  C   C1016     1.0  0.88711  0.62499  0.09423  1.0000
  N   N170      1.0  0.90155  0.62499  0.09850  1.0000
  C   C1017     1.0  0.90581  0.62500  0.11292  1.0000
  N   N171      1.0  0.89668  0.62499  0.12506  1.0000
  C   C1018     1.0  0.90583  0.62500  0.13721  1.0000
  C   C1019     1.0  0.92035  0.62500  0.13252  1.0000
  C   C1020     1.0  0.92035  0.62500  0.11763  1.0000
  N   N172      1.0  0.87508  0.62499  0.14667  1.0000
  C   C1021     1.0  0.88722  0.62499  0.15581  1.0000
  N   N173      1.0  0.90161  0.62500  0.15161  1.0000
  C   C1022     1.0  0.88254  0.62499  0.17034  1.0000
  C   C1023     1.0  0.86764  0.62499  0.17033  1.0000
  C   C1024     1.0  0.86294  0.62499  0.15580  1.0000
  C   C1025     1.0  0.93326  0.62500  0.10956  1.0000
  C   C1026     1.0  0.94655  0.62500  0.11732  1.0000
  C   C1027     1.0  0.94656  0.62500  0.13277  1.0000
  C   C1028     1.0  0.93328  0.62500  0.14058  1.0000
  C   C1029     1.0  0.85957  0.62499  0.18324  1.0000
  C   C1030     1.0  0.86734  0.62499  0.19654  1.0000
  C   C1031     1.0  0.88279  0.62500  0.19654  1.0000
  C   C1032     1.0  0.89059  0.62500  0.18326  1.0000
  N   N174      1.0  0.85336  0.62499  0.12496  1.0000
  C   C1033     1.0  0.84425  0.62499  0.13710  1.0000
  N   N175      1.0  0.84852  0.62499  0.15153  1.0000
  C   C1034     1.0  0.82971  0.62499  0.13240  1.0000
  C   C1035     1.0  0.82969  0.62499  0.11750  1.0000
  C   C1036     1.0  0.84421  0.62499  0.11281  1.0000
  C   C1037     1.0  0.81675  0.62499  0.10944  1.0000
  C   C1038     1.0  0.80347  0.62498  0.11724  1.0000
  C   C1039     1.0  0.80349  0.62498  0.13270  1.0000
  C   C1040     1.0  0.81680  0.62499  0.14048  1.0000
  N   N176      1.0  0.84842  0.62499  0.09839  1.0000
  H   H337      1.0  0.84811  0.62499  0.06688  1.0000
  H   H338      1.0  0.90181  0.62499  0.06696  1.0000
  H   H339      1.0  0.93309  0.62500  0.09824  1.0000
  H   H340      1.0  0.93313  0.62500  0.15189  1.0000
  H   H341      1.0  0.84826  0.62499  0.18308  1.0000
  H   H342      1.0  0.90191  0.62500  0.18311  1.0000
  H   H343      1.0  0.81690  0.62499  0.09812  1.0000
  H   H344      1.0  0.81698  0.62499  0.15181  1.0000
  C   C1041     1.0  0.79016  0.62498  0.10965  1.0000
  C   C1042     1.0  0.77691  0.62498  0.11735  1.0000
  C   C1043     1.0  0.77693  0.62498  0.13264  1.0000
  C   C1044     1.0  0.79021  0.62498  0.14031  1.0000
  C   C1045     1.0  0.85965  0.62499  0.04013  1.0000
  C   C1046     1.0  0.86734  0.62499  0.02688  1.0000
  C   C1047     1.0  0.88262  0.62499  0.02690  1.0000
  C   C1048     1.0  0.89029  0.62499  0.04018  1.0000
  C   C1049     1.0  0.95985  0.62500  0.10971  1.0000
  C   C1050     1.0  0.97311  0.62500  0.11738  1.0000
  C   C1051     1.0  0.97311  0.62500  0.13266  1.0000
  C   C1052     1.0  0.95986  0.62500  0.14035  1.0000
  C   C1053     1.0  0.85973  0.62499  0.20984  1.0000
  C   C1054     1.0  0.86739  0.62499  0.22309  1.0000
  C   C1055     1.0  0.88266  0.62500  0.22310  1.0000
  C   C1056     1.0  0.89035  0.62500  0.20985  1.0000
  H   H345      1.0  0.79012  0.62498  0.09834  1.0000
  O   O169      1.0  0.76396  0.62498  0.10993  1.0000
  O   O170      1.0  0.76399  0.62498  0.14009  1.0000
  H   H346      1.0  0.79018  0.62498  0.15164  1.0000
  H   H347      1.0  0.84832  0.62499  0.04009  1.0000
  O   O171      1.0  0.85992  0.62499  0.01392  1.0000
  O   O172      1.0  0.89008  0.62499  0.01397  1.0000
  H   H348      1.0  0.90162  0.62499  0.04016  1.0000
  H   H349      1.0  0.95988  0.62500  0.09840  1.0000
  O   O173      1.0  0.98605  0.62500  0.10993  1.0000
  O   O174      1.0  0.98605  0.62500  0.14006  1.0000
  H   H350      1.0  0.95989  0.62500  0.15166  1.0000
  H   H351      1.0  0.84843  0.62499  0.20987  1.0000
  O   O175      1.0  0.85995  0.62499  0.23603  1.0000
  O   O176      1.0  0.89007  0.62500  0.23604  1.0000
  H   H352      1.0  0.90166  0.62500  0.20988  1.0000
  Ni  Ni22      1.0  0.87503  0.62499  0.12501  1.0000
  C   C1057     1.0  0.37507  0.81677  0.10943  1.0000
  C   C1058     1.0  0.37507  0.80349  0.11723  1.0000
  C   C1059     1.0  0.37507  0.80352  0.13270  1.0000
  C   C1060     1.0  0.37507  0.81683  0.14049  1.0000
  C   C1061     1.0  0.37506  0.82973  0.13241  1.0000
  C   C1062     1.0  0.37507  0.82971  0.11750  1.0000
  C   C1063     1.0  0.37506  0.84423  0.11282  1.0000
  N   N177      1.0  0.37506  0.85339  0.12497  1.0000
  C   C1064     1.0  0.37506  0.84427  0.13711  1.0000
  N   N178      1.0  0.37506  0.84854  0.15155  1.0000
  C   C1065     1.0  0.37506  0.86296  0.15581  1.0000
  N   N179      1.0  0.37506  0.87510  0.14668  1.0000
  C   C1066     1.0  0.37506  0.88725  0.15583  1.0000
  C   C1067     1.0  0.37506  0.88256  0.17034  1.0000
  C   C1068     1.0  0.37506  0.86767  0.17035  1.0000
  N   N180      1.0  0.37506  0.89671  0.12508  1.0000
  C   C1069     1.0  0.37506  0.90585  0.13722  1.0000
  N   N181      1.0  0.37506  0.90164  0.15161  1.0000
  C   C1070     1.0  0.37506  0.92037  0.13253  1.0000
  C   C1071     1.0  0.37506  0.92036  0.11764  1.0000
  C   C1072     1.0  0.37506  0.90583  0.11294  1.0000
  C   C1073     1.0  0.37506  0.85960  0.18326  1.0000
  C   C1074     1.0  0.37506  0.86736  0.19655  1.0000
  C   C1075     1.0  0.37506  0.88281  0.19655  1.0000
  C   C1076     1.0  0.37506  0.89061  0.18327  1.0000
  C   C1077     1.0  0.37506  0.93327  0.10956  1.0000
  C   C1078     1.0  0.37505  0.94657  0.11733  1.0000
  C   C1079     1.0  0.37505  0.94658  0.13278  1.0000
  C   C1080     1.0  0.37505  0.93330  0.14058  1.0000
  N   N182      1.0  0.37506  0.87500  0.10336  1.0000
  C   C1081     1.0  0.37506  0.88713  0.09425  1.0000
  N   N183      1.0  0.37506  0.90157  0.09852  1.0000
  C   C1082     1.0  0.37506  0.88243  0.07971  1.0000
  C   C1083     1.0  0.37506  0.86753  0.07969  1.0000
  C   C1084     1.0  0.37506  0.86284  0.09421  1.0000
  C   C1085     1.0  0.37506  0.85947  0.06675  1.0000
  C   C1086     1.0  0.37506  0.86727  0.05347  1.0000
  C   C1087     1.0  0.37506  0.88272  0.05349  1.0000
  C   C1088     1.0  0.37506  0.89051  0.06680  1.0000
  N   N184      1.0  0.37506  0.84843  0.09842  1.0000
  H   H353      1.0  0.37507  0.81691  0.09811  1.0000
  H   H354      1.0  0.37507  0.81700  0.15181  1.0000
  H   H355      1.0  0.37506  0.84828  0.18309  1.0000
  H   H356      1.0  0.37506  0.90193  0.18312  1.0000
  H   H357      1.0  0.37506  0.93311  0.09825  1.0000
  H   H358      1.0  0.37505  0.93314  0.15190  1.0000
  H   H359      1.0  0.37507  0.84815  0.06690  1.0000
  H   H360      1.0  0.37506  0.90183  0.06697  1.0000
  C   C1089     1.0  0.37507  0.85968  0.04016  1.0000
  C   C1090     1.0  0.37507  0.86738  0.02691  1.0000
  C   C1091     1.0  0.37506  0.88267  0.02693  1.0000
  C   C1092     1.0  0.37506  0.89033  0.04020  1.0000
  C   C1093     1.0  0.37507  0.79017  0.10965  1.0000
  C   C1094     1.0  0.37507  0.77691  0.11735  1.0000
  C   C1095     1.0  0.37507  0.77694  0.13263  1.0000
  C   C1096     1.0  0.37507  0.79022  0.14030  1.0000
  C   C1097     1.0  0.37506  0.85975  0.20985  1.0000
  C   C1098     1.0  0.37506  0.86742  0.22311  1.0000
  C   C1099     1.0  0.37506  0.88270  0.22311  1.0000
  C   C1100     1.0  0.37506  0.89039  0.20985  1.0000
  C   C1101     1.0  0.37505  0.95987  0.10972  1.0000
  C   C1102     1.0  0.37505  0.97312  0.11738  1.0000
  C   C1103     1.0  0.37505  0.97313  0.13264  1.0000
  C   C1104     1.0  0.37505  0.95988  0.14034  1.0000
  H   H361      1.0  0.37507  0.84836  0.04012  1.0000
  O   O177      1.0  0.37507  0.85996  0.01396  1.0000
  O   O178      1.0  0.37506  0.89012  0.01400  1.0000
  H   H362      1.0  0.37506  0.90166  0.04018  1.0000
  H   H363      1.0  0.37507  0.79013  0.09833  1.0000
  O   O179      1.0  0.37507  0.76396  0.10993  1.0000
  O   O180      1.0  0.37507  0.76400  0.14009  1.0000
  H   H364      1.0  0.37507  0.79020  0.15162  1.0000
  H   H365      1.0  0.37506  0.84844  0.20988  1.0000
  O   O181      1.0  0.37506  0.85998  0.23605  1.0000
  O   O182      1.0  0.37505  0.89010  0.23605  1.0000
  H   H366      1.0  0.37505  0.90170  0.20988  1.0000
  H   H367      1.0  0.37505  0.95990  0.09842  1.0000
  O   O183      1.0  0.37505  0.98606  0.10994  1.0000
  O   O184      1.0  0.37505  0.98607  0.14005  1.0000
  H   H368      1.0  0.37505  0.95992  0.15165  1.0000
  Ni  Ni23      1.0  0.37506  0.87505  0.12502  1.0000
  C   C1105     1.0  0.62497  0.18326  0.14060  1.0000
  C   C1106     1.0  0.62497  0.19654  0.13280  1.0000
  C   C1107     1.0  0.62497  0.19651  0.11733  1.0000
  C   C1108     1.0  0.62497  0.18321  0.10954  1.0000
  C   C1109     1.0  0.62497  0.17030  0.11762  1.0000
  C   C1110     1.0  0.62497  0.17032  0.13253  1.0000
  C   C1111     1.0  0.62497  0.15580  0.13721  1.0000
  N   N185      1.0  0.62497  0.14664  0.12505  1.0000
  C   C1112     1.0  0.62497  0.15576  0.11291  1.0000
  N   N186      1.0  0.62497  0.15149  0.09847  1.0000
  C   C1113     1.0  0.62497  0.13707  0.09421  1.0000
  N   N187      1.0  0.62497  0.12494  0.10334  1.0000
  C   C1114     1.0  0.62498  0.11279  0.09419  1.0000
  C   C1115     1.0  0.62498  0.11747  0.07968  1.0000
  C   C1116     1.0  0.62497  0.13237  0.07968  1.0000
  N   N188      1.0  0.62498  0.10332  0.12494  1.0000
  C   C1117     1.0  0.62498  0.09419  0.11280  1.0000
  N   N189      1.0  0.62498  0.09839  0.09841  1.0000
  C   C1118     1.0  0.62498  0.07966  0.11749  1.0000
  C   C1119     1.0  0.62498  0.07967  0.13238  1.0000
  C   C1120     1.0  0.62498  0.09420  0.13708  1.0000
  C   C1121     1.0  0.62497  0.14044  0.06676  1.0000
  C   C1122     1.0  0.62497  0.13267  0.05348  1.0000
  C   C1123     1.0  0.62498  0.11723  0.05347  1.0000
  C   C1124     1.0  0.62498  0.10942  0.06675  1.0000
  C   C1125     1.0  0.62498  0.06676  0.14045  1.0000
  C   C1126     1.0  0.62498  0.05346  0.13268  1.0000
  C   C1127     1.0  0.62498  0.05346  0.11724  1.0000
  C   C1128     1.0  0.62498  0.06674  0.10943  1.0000
  N   N190      1.0  0.62497  0.12503  0.14666  1.0000
  C   C1129     1.0  0.62498  0.11290  0.15577  1.0000
  N   N191      1.0  0.62498  0.09846  0.15150  1.0000
  C   C1130     1.0  0.62497  0.11760  0.17032  1.0000
  C   C1131     1.0  0.62497  0.13250  0.17033  1.0000
  C   C1132     1.0  0.62497  0.13719  0.15581  1.0000
  C   C1133     1.0  0.62497  0.14056  0.18327  1.0000
  C   C1134     1.0  0.62497  0.13276  0.19656  1.0000
  C   C1135     1.0  0.62497  0.11730  0.19653  1.0000
  C   C1136     1.0  0.62498  0.10952  0.18322  1.0000
  N   N192      1.0  0.62497  0.15160  0.15161  1.0000
  H   H369      1.0  0.62497  0.18312  0.15191  1.0000
  H   H370      1.0  0.62497  0.18303  0.09821  1.0000
  H   H371      1.0  0.62497  0.15176  0.06693  1.0000
  H   H372      1.0  0.62498  0.09811  0.06690  1.0000
  H   H373      1.0  0.62498  0.06692  0.15176  1.0000
  H   H374      1.0  0.62498  0.06689  0.09812  1.0000
  H   H375      1.0  0.62497  0.15188  0.18313  1.0000
  H   H376      1.0  0.62498  0.09819  0.18304  1.0000
  C   C1137     1.0  0.62497  0.14034  0.20986  1.0000
  C   C1138     1.0  0.62497  0.13264  0.22312  1.0000
  C   C1139     1.0  0.62497  0.11736  0.22309  1.0000
  C   C1140     1.0  0.62497  0.10969  0.20982  1.0000
  C   C1141     1.0  0.62496  0.20986  0.14038  1.0000
  C   C1142     1.0  0.62496  0.22312  0.13269  1.0000
  C   C1143     1.0  0.62496  0.22309  0.11740  1.0000
  C   C1144     1.0  0.62496  0.20981  0.10973  1.0000
  C   C1145     1.0  0.62497  0.14029  0.04018  1.0000
  C   C1146     1.0  0.62497  0.13262  0.02692  1.0000
  C   C1147     1.0  0.62498  0.11734  0.02691  1.0000
  C   C1148     1.0  0.62498  0.10965  0.04017  1.0000
  C   C1149     1.0  0.62498  0.04016  0.14029  1.0000
  C   C1150     1.0  0.62499  0.02691  0.13264  1.0000
  C   C1151     1.0  0.62499  0.02690  0.11737  1.0000
  C   C1152     1.0  0.62499  0.04015  0.10968  1.0000
  H   H377      1.0  0.62497  0.15166  0.20990  1.0000
  O   O185      1.0  0.62497  0.14006  0.23606  1.0000
  O   O186      1.0  0.62497  0.10991  0.23603  1.0000
  H   H378      1.0  0.62498  0.09836  0.20984  1.0000
  H   H379      1.0  0.62496  0.20990  0.15170  1.0000
  O   O187      1.0  0.62496  0.23607  0.14011  1.0000
  O   O188      1.0  0.62496  0.23603  0.10995  1.0000
  H   H380      1.0  0.62496  0.20984  0.09841  1.0000
  H   H381      1.0  0.62497  0.15160  0.04015  1.0000
  O   O189      1.0  0.62497  0.14006  0.01398  1.0000
  O   O190      1.0  0.62498  0.10994  0.01397  1.0000
  H   H382      1.0  0.62498  0.09834  0.04014  1.0000
  H   H383      1.0  0.62498  0.04013  0.15159  1.0000
  O   O191      1.0  0.62499  0.01397  0.14007  1.0000
  O   O192      1.0  0.62499  0.01396  0.10996  1.0000
  H   H384      1.0  0.62499  0.04012  0.09836  1.0000
  Ni  Ni24      1.0  0.62497  0.12498  0.12500  1.0000
  C   C1153     1.0  0.64059  0.56673  0.87500  1.0000
  C   C1154     1.0  0.63279  0.55345  0.87500  1.0000
  C   C1155     1.0  0.61732  0.55348  0.87500  1.0000
  C   C1156     1.0  0.60953  0.56679  0.87500  1.0000
  C   C1157     1.0  0.61761  0.57969  0.87500  1.0000
  C   C1158     1.0  0.63252  0.57967  0.87500  1.0000
  C   C1159     1.0  0.63720  0.59418  0.87500  1.0000
  N   N193      1.0  0.62505  0.60335  0.87500  1.0000
  C   C1160     1.0  0.61291  0.59423  0.87500  1.0000
  N   N194      1.0  0.59847  0.59850  0.87500  1.0000
  C   C1161     1.0  0.59421  0.61292  0.87500  1.0000
  N   N195      1.0  0.60334  0.62506  0.87500  1.0000
  C   C1162     1.0  0.59420  0.63721  0.87500  1.0000
  C   C1163     1.0  0.57968  0.63252  0.87500  1.0000
  C   C1164     1.0  0.57968  0.61763  0.87500  1.0000
  N   N196      1.0  0.62495  0.64667  0.87500  1.0000
  C   C1165     1.0  0.61281  0.65581  0.87500  1.0000
  N   N197      1.0  0.59842  0.65160  0.87500  1.0000
  C   C1166     1.0  0.61750  0.67033  0.87500  1.0000
  C   C1167     1.0  0.63239  0.67032  0.87500  1.0000
  C   C1168     1.0  0.63709  0.65579  0.87500  1.0000
  C   C1169     1.0  0.56676  0.60956  0.87500  1.0000
  C   C1170     1.0  0.55348  0.61733  0.87500  1.0000
  C   C1171     1.0  0.55347  0.63277  0.87500  1.0000
  C   C1172     1.0  0.56675  0.64058  0.87500  1.0000
  C   C1173     1.0  0.64047  0.68323  0.87499  1.0000
  C   C1174     1.0  0.63270  0.69653  0.87499  1.0000
  C   C1175     1.0  0.61725  0.69654  0.87500  1.0000
  C   C1176     1.0  0.60944  0.68326  0.87500  1.0000
  N   N198      1.0  0.64666  0.62495  0.87500  1.0000
  C   C1177     1.0  0.65578  0.63709  0.87500  1.0000
  N   N199      1.0  0.65151  0.65152  0.87500  1.0000
  C   C1178     1.0  0.67032  0.63239  0.87499  1.0000
  C   C1179     1.0  0.67033  0.61748  0.87499  1.0000
  C   C1180     1.0  0.65582  0.61280  0.87500  1.0000
  C   C1181     1.0  0.68327  0.60942  0.87499  1.0000
  C   C1182     1.0  0.69656  0.61722  0.87499  1.0000
  C   C1183     1.0  0.69654  0.63268  0.87499  1.0000
  C   C1184     1.0  0.68323  0.64046  0.87499  1.0000
  N   N200      1.0  0.65161  0.59838  0.87500  1.0000
  H   H385      1.0  0.65191  0.56687  0.87500  1.0000
  H   H386      1.0  0.59820  0.56696  0.87500  1.0000
  H   H387      1.0  0.56693  0.59824  0.87500  1.0000
  H   H388      1.0  0.56690  0.65189  0.87500  1.0000
  H   H389      1.0  0.65178  0.68307  0.87499  1.0000
  H   H390      1.0  0.59813  0.68310  0.87500  1.0000
  H   H391      1.0  0.68313  0.59810  0.87499  1.0000
  H   H392      1.0  0.68305  0.65179  0.87499  1.0000
  C   C1185     1.0  0.70986  0.60963  0.87499  1.0000
  C   C1186     1.0  0.72312  0.61733  0.87499  1.0000
  C   C1187     1.0  0.72310  0.63262  0.87499  1.0000
  C   C1188     1.0  0.70982  0.64029  0.87499  1.0000
  C   C1189     1.0  0.64037  0.54013  0.87500  1.0000
  C   C1190     1.0  0.63267  0.52687  0.87500  1.0000
  C   C1191     1.0  0.61739  0.52690  0.87500  1.0000
  C   C1192     1.0  0.60972  0.54018  0.87500  1.0000
  C   C1193     1.0  0.54018  0.60972  0.87500  1.0000
  C   C1194     1.0  0.52691  0.61739  0.87500  1.0000
  C   C1195     1.0  0.52691  0.63267  0.87500  1.0000
  C   C1196     1.0  0.54017  0.64035  0.87500  1.0000
  C   C1197     1.0  0.64031  0.70983  0.87499  1.0000
  C   C1198     1.0  0.63266  0.72308  0.87499  1.0000
  C   C1199     1.0  0.61739  0.72309  0.87500  1.0000
  C   C1200     1.0  0.60969  0.70984  0.87500  1.0000
  H   H393      1.0  0.70990  0.59832  0.87499  1.0000
  O   O193      1.0  0.73607  0.60991  0.87499  1.0000
  O   O194      1.0  0.73603  0.64007  0.87499  1.0000
  H   H394      1.0  0.70985  0.65162  0.87499  1.0000
  H   H395      1.0  0.65169  0.54008  0.87500  1.0000
  O   O195      1.0  0.64009  0.51392  0.87500  1.0000
  O   O196      1.0  0.60993  0.51397  0.87500  1.0000
  H   H396      1.0  0.59840  0.54016  0.87500  1.0000
  H   H397      1.0  0.54014  0.59841  0.87500  1.0000
  O   O197      1.0  0.51397  0.60995  0.87500  1.0000
  O   O198      1.0  0.51398  0.64007  0.87500  1.0000
  H   H398      1.0  0.54014  0.65166  0.87500  1.0000
  H   H399      1.0  0.65161  0.70985  0.87499  1.0000
  O   O199      1.0  0.64009  0.73602  0.87499  1.0000
  O   O200      1.0  0.60998  0.73603  0.87500  1.0000
  H   H400      1.0  0.59838  0.70988  0.87500  1.0000
  Ni  Ni25      1.0  0.62500  0.62501  0.87500  1.0000
  C   C1201     1.0  0.39059  0.56677  0.87502  1.0000
  C   C1202     1.0  0.38278  0.55349  0.87502  1.0000
  C   C1203     1.0  0.36732  0.55352  0.87502  1.0000
  C   C1204     1.0  0.35953  0.56682  0.87502  1.0000
  C   C1205     1.0  0.36761  0.57973  0.87502  1.0000
  C   C1206     1.0  0.38252  0.57971  0.87502  1.0000
  C   C1207     1.0  0.38720  0.59422  0.87502  1.0000
  N   N201      1.0  0.37504  0.60339  0.87502  1.0000
  C   C1208     1.0  0.36291  0.59427  0.87502  1.0000
  N   N202      1.0  0.34846  0.59854  0.87502  1.0000
  C   C1209     1.0  0.34421  0.61296  0.87502  1.0000
  N   N203      1.0  0.35334  0.62509  0.87502  1.0000
  C   C1210     1.0  0.34419  0.63724  0.87502  1.0000
  C   C1211     1.0  0.32968  0.63256  0.87502  1.0000
  C   C1212     1.0  0.32967  0.61767  0.87502  1.0000
  N   N204      1.0  0.37494  0.64670  0.87502  1.0000
  C   C1213     1.0  0.36280  0.65584  0.87502  1.0000
  N   N205      1.0  0.34841  0.65164  0.87502  1.0000
  C   C1214     1.0  0.36749  0.67037  0.87502  1.0000
  C   C1215     1.0  0.38239  0.67035  0.87502  1.0000
  C   C1216     1.0  0.38708  0.65583  0.87502  1.0000
  C   C1217     1.0  0.31676  0.60960  0.87502  1.0000
  C   C1218     1.0  0.30347  0.61736  0.87502  1.0000
  C   C1219     1.0  0.30346  0.63281  0.87502  1.0000
  C   C1220     1.0  0.31674  0.64061  0.87502  1.0000
  C   C1221     1.0  0.39046  0.68327  0.87502  1.0000
  C   C1222     1.0  0.38269  0.69657  0.87502  1.0000
  C   C1223     1.0  0.36725  0.69657  0.87502  1.0000
  C   C1224     1.0  0.35944  0.68329  0.87502  1.0000
  N   N206      1.0  0.39666  0.62499  0.87502  1.0000
  C   C1225     1.0  0.40577  0.63712  0.87502  1.0000
  N   N207      1.0  0.40150  0.65156  0.87502  1.0000
  C   C1226     1.0  0.42032  0.63242  0.87502  1.0000
  C   C1227     1.0  0.42033  0.61752  0.87502  1.0000
  C   C1228     1.0  0.40581  0.61284  0.87502  1.0000
  C   C1229     1.0  0.43327  0.60946  0.87502  1.0000
  C   C1230     1.0  0.44656  0.61726  0.87502  1.0000
  C   C1231     1.0  0.44653  0.63271  0.87502  1.0000
  C   C1232     1.0  0.43322  0.64050  0.87502  1.0000
  N   N208      1.0  0.40160  0.59842  0.87502  1.0000
  H   H401      1.0  0.40190  0.56691  0.87502  1.0000
  H   H402      1.0  0.34820  0.56700  0.87502  1.0000
  H   H403      1.0  0.31692  0.59828  0.87502  1.0000
  H   H404      1.0  0.31690  0.65193  0.87502  1.0000
  H   H405      1.0  0.40177  0.68310  0.87502  1.0000
  H   H406      1.0  0.34812  0.68314  0.87502  1.0000
  H   H407      1.0  0.43312  0.59814  0.87502  1.0000
  H   H408      1.0  0.43305  0.65183  0.87502  1.0000
  C   C1233     1.0  0.45986  0.60967  0.87502  1.0000
  C   C1234     1.0  0.47312  0.61737  0.87502  1.0000
  C   C1235     1.0  0.47310  0.63266  0.87502  1.0000
  C   C1236     1.0  0.45982  0.64032  0.87502  1.0000
  C   C1237     1.0  0.39036  0.54016  0.87502  1.0000
  C   C1238     1.0  0.38267  0.52691  0.87502  1.0000
  C   C1239     1.0  0.36738  0.52694  0.87502  1.0000
  C   C1240     1.0  0.35971  0.54022  0.87502  1.0000
  C   C1241     1.0  0.29017  0.60976  0.87502  1.0000
  C   C1242     1.0  0.27691  0.61742  0.87502  1.0000
  C   C1243     1.0  0.27691  0.63271  0.87502  1.0000
  C   C1244     1.0  0.29017  0.64039  0.87502  1.0000
  C   C1245     1.0  0.39030  0.70986  0.87502  1.0000
  C   C1246     1.0  0.38265  0.72312  0.87502  1.0000
  C   C1247     1.0  0.36738  0.72313  0.87502  1.0000
  C   C1248     1.0  0.35969  0.70988  0.87502  1.0000
  H   H409      1.0  0.45990  0.59835  0.87502  1.0000
  O   O201      1.0  0.48606  0.60995  0.87502  1.0000
  O   O202      1.0  0.48603  0.64010  0.87502  1.0000
  H   H410      1.0  0.45984  0.65165  0.87502  1.0000
  H   H411      1.0  0.40168  0.54012  0.87502  1.0000
  O   O203      1.0  0.39008  0.51395  0.87502  1.0000
  O   O204      1.0  0.35993  0.51400  0.87502  1.0000
  H   H412      1.0  0.34839  0.54020  0.87502  1.0000
  H   H413      1.0  0.29014  0.59845  0.87502  1.0000
  O   O205      1.0  0.26397  0.60998  0.87502  1.0000
  O   O206      1.0  0.26397  0.64011  0.87502  1.0000
  H   H414      1.0  0.29014  0.65170  0.87502  1.0000
  H   H415      1.0  0.40160  0.70989  0.87502  1.0000
  O   O207      1.0  0.39009  0.73606  0.87502  1.0000
  O   O208      1.0  0.35997  0.73607  0.87502  1.0000
  H   H416      1.0  0.34837  0.70991  0.87502  1.0000
  Ni  Ni26      1.0  0.37500  0.62504  0.87502  1.0000
  C   C1249     1.0  0.39056  0.31676  0.87501  1.0000
  C   C1250     1.0  0.38275  0.30349  0.87501  1.0000
  C   C1251     1.0  0.36729  0.30352  0.87501  1.0000
  C   C1252     1.0  0.35950  0.31682  0.87501  1.0000
  C   C1253     1.0  0.36758  0.32973  0.87501  1.0000
  C   C1254     1.0  0.38249  0.32970  0.87501  1.0000
  C   C1255     1.0  0.38717  0.34422  0.87501  1.0000
  N   N209      1.0  0.37502  0.35339  0.87502  1.0000
  C   C1256     1.0  0.36288  0.34426  0.87501  1.0000
  N   N210      1.0  0.34843  0.34853  0.87501  1.0000
  C   C1257     1.0  0.34418  0.36296  0.87502  1.0000
  N   N211      1.0  0.35331  0.37509  0.87502  1.0000
  C   C1258     1.0  0.34417  0.38724  0.87502  1.0000
  C   C1259     1.0  0.32965  0.38256  0.87502  1.0000
  C   C1260     1.0  0.32964  0.36767  0.87502  1.0000
  N   N212      1.0  0.37492  0.39670  0.87502  1.0000
  C   C1261     1.0  0.36278  0.40584  0.87502  1.0000
  N   N213      1.0  0.34838  0.40164  0.87502  1.0000
  C   C1262     1.0  0.36746  0.42037  0.87502  1.0000
  C   C1263     1.0  0.38236  0.42035  0.87502  1.0000
  C   C1264     1.0  0.38706  0.40582  0.87502  1.0000
  C   C1265     1.0  0.31673  0.35960  0.87501  1.0000
  C   C1266     1.0  0.30344  0.36736  0.87501  1.0000
  C   C1267     1.0  0.30344  0.38281  0.87502  1.0000
  C   C1268     1.0  0.31672  0.39061  0.87502  1.0000
  C   C1269     1.0  0.39043  0.43327  0.87502  1.0000
  C   C1270     1.0  0.38266  0.44657  0.87502  1.0000
  C   C1271     1.0  0.36722  0.44657  0.87502  1.0000
  C   C1272     1.0  0.35941  0.43329  0.87502  1.0000
  N   N214      1.0  0.39663  0.37499  0.87502  1.0000
  C   C1273     1.0  0.40575  0.38712  0.87502  1.0000
  N   N215      1.0  0.40148  0.40156  0.87502  1.0000
  C   C1274     1.0  0.42029  0.38242  0.87502  1.0000
  C   C1275     1.0  0.42030  0.36752  0.87502  1.0000
  C   C1276     1.0  0.40578  0.36283  0.87502  1.0000
  C   C1277     1.0  0.43324  0.35946  0.87502  1.0000
  C   C1278     1.0  0.44653  0.36726  0.87502  1.0000
  C   C1279     1.0  0.44651  0.38271  0.87502  1.0000
  C   C1280     1.0  0.43320  0.39050  0.87502  1.0000
  N   N216      1.0  0.40157  0.34842  0.87502  1.0000
  H   H417      1.0  0.40188  0.31690  0.87501  1.0000
  H   H418      1.0  0.34817  0.31700  0.87501  1.0000
  H   H419      1.0  0.31690  0.34828  0.87501  1.0000
  H   H420      1.0  0.31687  0.40193  0.87502  1.0000
  H   H421      1.0  0.40175  0.43310  0.87502  1.0000
  H   H422      1.0  0.34810  0.43314  0.87502  1.0000
  H   H423      1.0  0.43309  0.34814  0.87502  1.0000
  H   H424      1.0  0.43302  0.40182  0.87502  1.0000
  C   C1281     1.0  0.45983  0.35967  0.87502  1.0000
  C   C1282     1.0  0.47309  0.36737  0.87502  1.0000
  C   C1283     1.0  0.47307  0.38265  0.87502  1.0000
  C   C1284     1.0  0.45979  0.39032  0.87502  1.0000
  C   C1285     1.0  0.39033  0.29016  0.87501  1.0000
  C   C1286     1.0  0.38264  0.27691  0.87501  1.0000
  C   C1287     1.0  0.36736  0.27693  0.87501  1.0000
  C   C1288     1.0  0.35969  0.29021  0.87501  1.0000
  C   C1289     1.0  0.29014  0.35975  0.87501  1.0000
  C   C1290     1.0  0.27688  0.36742  0.87501  1.0000
  C   C1291     1.0  0.27688  0.38270  0.87502  1.0000
  C   C1292     1.0  0.29014  0.39039  0.87502  1.0000
  C   C1293     1.0  0.39028  0.45986  0.87502  1.0000
  C   C1294     1.0  0.38262  0.47312  0.87502  1.0000
  C   C1295     1.0  0.36736  0.47313  0.87502  1.0000
  C   C1296     1.0  0.35966  0.45987  0.87502  1.0000
  H   H425      1.0  0.45987  0.34835  0.87502  1.0000
  O   O209      1.0  0.48604  0.35994  0.87502  1.0000
  O   O210      1.0  0.48600  0.39010  0.87502  1.0000
  H   H426      1.0  0.45981  0.40165  0.87502  1.0000
  H   H427      1.0  0.40166  0.29012  0.87501  1.0000
  O   O211      1.0  0.39006  0.26395  0.87501  1.0000
  O   O212      1.0  0.35990  0.26400  0.87501  1.0000
  H   H428      1.0  0.34836  0.29019  0.87501  1.0000
  H   H429      1.0  0.29011  0.34844  0.87501  1.0000
  O   O213      1.0  0.26394  0.35998  0.87501  1.0000
  O   O214      1.0  0.26394  0.39011  0.87502  1.0000
  H   H430      1.0  0.29011  0.40170  0.87502  1.0000
  H   H431      1.0  0.40158  0.45989  0.87502  1.0000
  O   O215      1.0  0.39006  0.48605  0.87502  1.0000
  O   O216      1.0  0.35995  0.48606  0.87502  1.0000
  H   H432      1.0  0.34835  0.45991  0.87502  1.0000
  Ni  Ni27      1.0  0.37497  0.37504  0.87502  1.0000
  C   C1297     1.0  0.64057  0.31674  0.87503  1.0000
  C   C1298     1.0  0.63276  0.30346  0.87503  1.0000
  C   C1299     1.0  0.61730  0.30349  0.87503  1.0000
  C   C1300     1.0  0.60951  0.31679  0.87503  1.0000
  C   C1301     1.0  0.61759  0.32970  0.87502  1.0000
  C   C1302     1.0  0.63250  0.32967  0.87502  1.0000
  C   C1303     1.0  0.63718  0.34419  0.87502  1.0000
  N   N217      1.0  0.62502  0.35336  0.87502  1.0000
  C   C1304     1.0  0.61288  0.34423  0.87502  1.0000
  N   N218      1.0  0.59844  0.34850  0.87502  1.0000
  C   C1305     1.0  0.59418  0.36292  0.87502  1.0000
  N   N219      1.0  0.60331  0.37506  0.87502  1.0000
  C   C1306     1.0  0.59417  0.38721  0.87502  1.0000
  C   C1307     1.0  0.57965  0.38252  0.87502  1.0000
  C   C1308     1.0  0.57965  0.36763  0.87502  1.0000
  N   N220      1.0  0.62492  0.39667  0.87502  1.0000
  C   C1309     1.0  0.61278  0.40581  0.87502  1.0000
  N   N221      1.0  0.59838  0.40160  0.87502  1.0000
  C   C1310     1.0  0.61746  0.42033  0.87502  1.0000
  C   C1311     1.0  0.63236  0.42032  0.87502  1.0000
  C   C1312     1.0  0.63706  0.40579  0.87502  1.0000
  C   C1313     1.0  0.56673  0.35956  0.87502  1.0000
  C   C1314     1.0  0.55345  0.36733  0.87502  1.0000
  C   C1315     1.0  0.55344  0.38277  0.87502  1.0000
  C   C1316     1.0  0.56672  0.39058  0.87502  1.0000
  C   C1317     1.0  0.64043  0.43324  0.87502  1.0000
  C   C1318     1.0  0.63266  0.44654  0.87502  1.0000
  C   C1319     1.0  0.61722  0.44654  0.87502  1.0000
  C   C1320     1.0  0.60941  0.43326  0.87502  1.0000
  N   N222      1.0  0.64663  0.37496  0.87502  1.0000
  C   C1321     1.0  0.65575  0.38709  0.87502  1.0000
  N   N223      1.0  0.65148  0.40153  0.87502  1.0000
  C   C1322     1.0  0.67029  0.38239  0.87502  1.0000
  C   C1323     1.0  0.67030  0.36749  0.87502  1.0000
  C   C1324     1.0  0.65579  0.36280  0.87502  1.0000
  C   C1325     1.0  0.68324  0.35943  0.87502  1.0000
  C   C1326     1.0  0.69653  0.36723  0.87502  1.0000
  C   C1327     1.0  0.69651  0.38269  0.87502  1.0000
  C   C1328     1.0  0.68320  0.39047  0.87502  1.0000
  N   N224      1.0  0.65158  0.34839  0.87502  1.0000
  H   H433      1.0  0.65188  0.31688  0.87503  1.0000
  H   H434      1.0  0.59818  0.31697  0.87503  1.0000
  H   H435      1.0  0.56690  0.34824  0.87502  1.0000
  H   H436      1.0  0.56687  0.40189  0.87502  1.0000
  H   H437      1.0  0.65174  0.43307  0.87502  1.0000
  H   H438      1.0  0.59810  0.43310  0.87502  1.0000
  H   H439      1.0  0.68310  0.34811  0.87502  1.0000
  H   H440      1.0  0.68302  0.40180  0.87502  1.0000
  C   C1329     1.0  0.70984  0.35965  0.87502  1.0000
  C   C1330     1.0  0.72309  0.36734  0.87502  1.0000
  C   C1331     1.0  0.72307  0.38263  0.87502  1.0000
  C   C1332     1.0  0.70979  0.39030  0.87502  1.0000
  C   C1333     1.0  0.64034  0.29013  0.87503  1.0000
  C   C1334     1.0  0.63265  0.27688  0.87503  1.0000
  C   C1335     1.0  0.61737  0.27690  0.87503  1.0000
  C   C1336     1.0  0.60970  0.29018  0.87503  1.0000
  C   C1337     1.0  0.54015  0.35972  0.87502  1.0000
  C   C1338     1.0  0.52688  0.36738  0.87502  1.0000
  C   C1339     1.0  0.52689  0.38267  0.87502  1.0000
  C   C1340     1.0  0.54014  0.39035  0.87502  1.0000
  C   C1341     1.0  0.64027  0.45983  0.87502  1.0000
  C   C1342     1.0  0.63262  0.47309  0.87502  1.0000
  C   C1343     1.0  0.61735  0.47310  0.87502  1.0000
  C   C1344     1.0  0.60966  0.45984  0.87502  1.0000
  H   H441      1.0  0.70988  0.34833  0.87502  1.0000
  O   O217      1.0  0.73604  0.35992  0.87502  1.0000
  O   O218      1.0  0.73600  0.39008  0.87502  1.0000
  H   H442      1.0  0.70982  0.40163  0.87502  1.0000
  H   H443      1.0  0.65167  0.29009  0.87503  1.0000
  O   O219      1.0  0.64007  0.26392  0.87503  1.0000
  O   O220      1.0  0.60991  0.26397  0.87503  1.0000
  H   H444      1.0  0.59837  0.29016  0.87503  1.0000
  H   H445      1.0  0.54012  0.34841  0.87502  1.0000
  O   O221      1.0  0.51394  0.35994  0.87502  1.0000
  O   O222      1.0  0.51395  0.39007  0.87502  1.0000
  H   H446      1.0  0.54011  0.40166  0.87502  1.0000
  H   H447      1.0  0.65157  0.45986  0.87502  1.0000
  O   O223      1.0  0.64005  0.48603  0.87502  1.0000
  O   O224      1.0  0.60994  0.48603  0.87502  1.0000
  H   H448      1.0  0.59834  0.45988  0.87502  1.0000
  Ni  Ni28      1.0  0.62497  0.37501  0.87502  1.0000
  C   C1345     1.0  0.64056  0.31675  0.12504  1.0000
  C   C1346     1.0  0.63275  0.30347  0.12504  1.0000
  C   C1347     1.0  0.61729  0.30350  0.12504  1.0000
  C   C1348     1.0  0.60950  0.31680  0.12504  1.0000
  C   C1349     1.0  0.61758  0.32971  0.12504  1.0000
  C   C1350     1.0  0.63249  0.32969  0.12504  1.0000
  C   C1351     1.0  0.63717  0.34420  0.12504  1.0000
  N   N225      1.0  0.62501  0.35337  0.12504  1.0000
  C   C1352     1.0  0.61288  0.34425  0.12504  1.0000
  N   N226      1.0  0.59843  0.34852  0.12504  1.0000
  C   C1353     1.0  0.59418  0.36294  0.12504  1.0000
  N   N227      1.0  0.60331  0.37508  0.12504  1.0000
  C   C1354     1.0  0.59416  0.38723  0.12504  1.0000
  C   C1355     1.0  0.57965  0.38254  0.12504  1.0000
  C   C1356     1.0  0.57964  0.36765  0.12504  1.0000
  N   N228      1.0  0.62491  0.39669  0.12504  1.0000
  C   C1357     1.0  0.61277  0.40583  0.12504  1.0000
  N   N229      1.0  0.59838  0.40162  0.12504  1.0000
  C   C1358     1.0  0.61746  0.42035  0.12504  1.0000
  C   C1359     1.0  0.63235  0.42034  0.12504  1.0000
  C   C1360     1.0  0.63705  0.40581  0.12504  1.0000
  C   C1361     1.0  0.56673  0.35958  0.12504  1.0000
  C   C1362     1.0  0.55344  0.36734  0.12504  1.0000
  C   C1363     1.0  0.55343  0.38279  0.12504  1.0000
  C   C1364     1.0  0.56671  0.39059  0.12504  1.0000
  C   C1365     1.0  0.64043  0.43325  0.12504  1.0000
  C   C1366     1.0  0.63266  0.44655  0.12504  1.0000
  C   C1367     1.0  0.61721  0.44655  0.12504  1.0000
  C   C1368     1.0  0.60941  0.43328  0.12504  1.0000
  N   N230      1.0  0.64663  0.37498  0.12504  1.0000
  C   C1369     1.0  0.65574  0.38711  0.12504  1.0000
  N   N231      1.0  0.65147  0.40154  0.12504  1.0000
  C   C1370     1.0  0.67028  0.38241  0.12504  1.0000
  C   C1371     1.0  0.67030  0.36750  0.12504  1.0000
  C   C1372     1.0  0.65578  0.36282  0.12504  1.0000
  C   C1373     1.0  0.68324  0.35945  0.12504  1.0000
  C   C1374     1.0  0.69652  0.36725  0.12504  1.0000
  C   C1375     1.0  0.69650  0.38270  0.12504  1.0000
  C   C1376     1.0  0.68319  0.39049  0.12504  1.0000
  N   N232      1.0  0.65157  0.34840  0.12504  1.0000
  H   H449      1.0  0.65188  0.31689  0.12504  1.0000
  H   H450      1.0  0.59817  0.31698  0.12504  1.0000
  H   H451      1.0  0.56689  0.34826  0.12504  1.0000
  H   H452      1.0  0.56686  0.40191  0.12504  1.0000
  H   H453      1.0  0.65174  0.43309  0.12504  1.0000
  H   H454      1.0  0.59809  0.43312  0.12504  1.0000
  H   H455      1.0  0.68309  0.34812  0.12504  1.0000
  H   H456      1.0  0.68302  0.40181  0.12504  1.0000
  C   C1377     1.0  0.70983  0.35966  0.12504  1.0000
  C   C1378     1.0  0.72308  0.36736  0.12505  1.0000
  C   C1379     1.0  0.72306  0.38264  0.12505  1.0000
  C   C1380     1.0  0.70979  0.39031  0.12505  1.0000
  C   C1381     1.0  0.64034  0.29015  0.12504  1.0000
  C   C1382     1.0  0.63264  0.27689  0.12504  1.0000
  C   C1383     1.0  0.61736  0.27692  0.12503  1.0000
  C   C1384     1.0  0.60969  0.29020  0.12504  1.0000
  C   C1385     1.0  0.54014  0.35973  0.12503  1.0000
  C   C1386     1.0  0.52688  0.36740  0.12503  1.0000
  C   C1387     1.0  0.52688  0.38268  0.12503  1.0000
  C   C1388     1.0  0.54014  0.39037  0.12504  1.0000
  C   C1389     1.0  0.64027  0.45985  0.12504  1.0000
  C   C1390     1.0  0.63262  0.47310  0.12505  1.0000
  C   C1391     1.0  0.61735  0.47311  0.12504  1.0000
  C   C1392     1.0  0.60965  0.45986  0.12504  1.0000
  H   H457      1.0  0.70987  0.34834  0.12504  1.0000
  O   O225      1.0  0.73603  0.35994  0.12505  1.0000
  O   O226      1.0  0.73600  0.39009  0.12505  1.0000
  H   H458      1.0  0.70981  0.40164  0.12505  1.0000
  H   H459      1.0  0.65166  0.29011  0.12504  1.0000
  O   O227      1.0  0.64006  0.26394  0.12504  1.0000
  O   O228      1.0  0.60990  0.26398  0.12503  1.0000
  H   H460      1.0  0.59837  0.29018  0.12503  1.0000
  H   H461      1.0  0.54011  0.34842  0.12503  1.0000
  O   O229      1.0  0.51394  0.35996  0.12503  1.0000
  O   O230      1.0  0.51394  0.39008  0.12503  1.0000
  H   H462      1.0  0.54010  0.40168  0.12504  1.0000
  H   H463      1.0  0.65157  0.45987  0.12505  1.0000
  O   O231      1.0  0.64005  0.48604  0.12505  1.0000
  O   O232      1.0  0.60994  0.48605  0.12504  1.0000
  H   H464      1.0  0.59834  0.45990  0.12504  1.0000
  Ni  Ni29      1.0  0.62496  0.37503  0.12504  1.0000
  C   C1393     1.0  0.64059  0.56675  0.12504  1.0000
  C   C1394     1.0  0.63278  0.55347  0.12504  1.0000
  C   C1395     1.0  0.61732  0.55350  0.12504  1.0000
  C   C1396     1.0  0.60953  0.56680  0.12504  1.0000
  C   C1397     1.0  0.61761  0.57971  0.12504  1.0000
  C   C1398     1.0  0.63252  0.57968  0.12504  1.0000
  C   C1399     1.0  0.63720  0.59420  0.12504  1.0000
  N   N233      1.0  0.62505  0.60337  0.12504  1.0000
  C   C1400     1.0  0.61291  0.59425  0.12504  1.0000
  N   N234      1.0  0.59846  0.59852  0.12504  1.0000
  C   C1401     1.0  0.59421  0.61294  0.12504  1.0000
  N   N235      1.0  0.60334  0.62507  0.12504  1.0000
  C   C1402     1.0  0.59419  0.63722  0.12504  1.0000
  C   C1403     1.0  0.57968  0.63254  0.12504  1.0000
  C   C1404     1.0  0.57967  0.61765  0.12504  1.0000
  N   N236      1.0  0.62495  0.64668  0.12504  1.0000
  C   C1405     1.0  0.61281  0.65582  0.12504  1.0000
  N   N237      1.0  0.59841  0.65162  0.12504  1.0000
  C   C1406     1.0  0.61749  0.67035  0.12504  1.0000
  C   C1407     1.0  0.63239  0.67033  0.12504  1.0000
  C   C1408     1.0  0.63708  0.65580  0.12504  1.0000
  C   C1409     1.0  0.56676  0.60958  0.12504  1.0000
  C   C1410     1.0  0.55347  0.61734  0.12504  1.0000
  C   C1411     1.0  0.55347  0.63279  0.12504  1.0000
  C   C1412     1.0  0.56675  0.64059  0.12504  1.0000
  C   C1413     1.0  0.64046  0.68325  0.12504  1.0000
  C   C1414     1.0  0.63269  0.69655  0.12503  1.0000
  C   C1415     1.0  0.61725  0.69655  0.12503  1.0000
  C   C1416     1.0  0.60944  0.68327  0.12504  1.0000
  N   N238      1.0  0.64666  0.62497  0.12504  1.0000
  C   C1417     1.0  0.65578  0.63710  0.12504  1.0000
  N   N239      1.0  0.65151  0.65154  0.12504  1.0000
  C   C1418     1.0  0.67032  0.63240  0.12504  1.0000
  C   C1419     1.0  0.67033  0.61750  0.12504  1.0000
  C   C1420     1.0  0.65581  0.61281  0.12504  1.0000
  C   C1421     1.0  0.68327  0.60944  0.12504  1.0000
  C   C1422     1.0  0.69656  0.61724  0.12504  1.0000
  C   C1423     1.0  0.69653  0.63269  0.12504  1.0000
  C   C1424     1.0  0.68322  0.64048  0.12504  1.0000
  N   N240      1.0  0.65160  0.59840  0.12504  1.0000
  H   H465      1.0  0.65191  0.56689  0.12504  1.0000
  H   H466      1.0  0.59820  0.56698  0.12504  1.0000
  H   H467      1.0  0.56693  0.59826  0.12504  1.0000
  H   H468      1.0  0.56690  0.65191  0.12504  1.0000
  H   H469      1.0  0.65177  0.68308  0.12504  1.0000
  H   H470      1.0  0.59813  0.68312  0.12504  1.0000
  H   H471      1.0  0.68312  0.59812  0.12504  1.0000
  H   H472      1.0  0.68305  0.65181  0.12504  1.0000
  C   C1425     1.0  0.70986  0.60965  0.12504  1.0000
  C   C1426     1.0  0.72312  0.61735  0.12504  1.0000
  C   C1427     1.0  0.72310  0.63264  0.12504  1.0000
  C   C1428     1.0  0.70982  0.64030  0.12504  1.0000
  C   C1429     1.0  0.64036  0.54014  0.12504  1.0000
  C   C1430     1.0  0.63267  0.52689  0.12504  1.0000
  C   C1431     1.0  0.61739  0.52692  0.12504  1.0000
  C   C1432     1.0  0.60972  0.54020  0.12504  1.0000
  C   C1433     1.0  0.54017  0.60973  0.12504  1.0000
  C   C1434     1.0  0.52691  0.61740  0.12504  1.0000
  C   C1435     1.0  0.52691  0.63268  0.12504  1.0000
  C   C1436     1.0  0.54017  0.64037  0.12504  1.0000
  C   C1437     1.0  0.64030  0.70984  0.12503  1.0000
  C   C1438     1.0  0.63265  0.72310  0.12503  1.0000
  C   C1439     1.0  0.61738  0.72311  0.12503  1.0000
  C   C1440     1.0  0.60969  0.70986  0.12503  1.0000
  H   H473      1.0  0.70990  0.59833  0.12504  1.0000
  O   O233      1.0  0.73606  0.60993  0.12504  1.0000
  O   O234      1.0  0.73603  0.64008  0.12504  1.0000
  H   H474      1.0  0.70984  0.65163  0.12504  1.0000
  H   H475      1.0  0.65169  0.54010  0.12504  1.0000
  O   O235      1.0  0.64009  0.51393  0.12505  1.0000
  O   O236      1.0  0.60993  0.51398  0.12505  1.0000
  H   H476      1.0  0.59839  0.54017  0.12504  1.0000
  H   H477      1.0  0.54014  0.59842  0.12504  1.0000
  O   O237      1.0  0.51397  0.60996  0.12504  1.0000
  O   O238      1.0  0.51397  0.64009  0.12504  1.0000
  H   H478      1.0  0.54014  0.65168  0.12504  1.0000
  H   H479      1.0  0.65160  0.70987  0.12503  1.0000
  O   O239      1.0  0.64009  0.73604  0.12503  1.0000
  O   O240      1.0  0.60997  0.73605  0.12503  1.0000
  H   H480      1.0  0.59838  0.70989  0.12503  1.0000
  Ni  Ni30      1.0  0.62500  0.62502  0.12504  1.0000
  C   C1441     1.0  0.39059  0.56677  0.12500  1.0000
  C   C1442     1.0  0.38278  0.55349  0.12500  1.0000
  C   C1443     1.0  0.36732  0.55352  0.12500  1.0000
  C   C1444     1.0  0.35953  0.56683  0.12500  1.0000
  C   C1445     1.0  0.36761  0.57974  0.12500  1.0000
  C   C1446     1.0  0.38252  0.57971  0.12500  1.0000
  C   C1447     1.0  0.38720  0.59423  0.12500  1.0000
  N   N241      1.0  0.37504  0.60339  0.12500  1.0000
  C   C1448     1.0  0.36291  0.59427  0.12500  1.0000
  N   N242      1.0  0.34846  0.59854  0.12500  1.0000
  C   C1449     1.0  0.34421  0.61297  0.12500  1.0000
  N   N243      1.0  0.35334  0.62510  0.12500  1.0000
  C   C1450     1.0  0.34419  0.63725  0.12500  1.0000
  C   C1451     1.0  0.32968  0.63257  0.12500  1.0000
  C   C1452     1.0  0.32967  0.61767  0.12500  1.0000
  N   N244      1.0  0.37495  0.64671  0.12500  1.0000
  C   C1453     1.0  0.36281  0.65585  0.12500  1.0000
  N   N245      1.0  0.34841  0.65164  0.12500  1.0000
  C   C1454     1.0  0.36749  0.67037  0.12500  1.0000
  C   C1455     1.0  0.38239  0.67036  0.12500  1.0000
  C   C1456     1.0  0.38708  0.65583  0.12500  1.0000
  C   C1457     1.0  0.31676  0.60961  0.12500  1.0000
  C   C1458     1.0  0.30347  0.61737  0.12500  1.0000
  C   C1459     1.0  0.30346  0.63281  0.12500  1.0000
  C   C1460     1.0  0.31675  0.64062  0.12500  1.0000
  C   C1461     1.0  0.39046  0.68327  0.12500  1.0000
  C   C1462     1.0  0.38269  0.69657  0.12500  1.0000
  C   C1463     1.0  0.36725  0.69658  0.12500  1.0000
  C   C1464     1.0  0.35944  0.68330  0.12500  1.0000
  N   N246      1.0  0.39666  0.62500  0.12500  1.0000
  C   C1465     1.0  0.40578  0.63713  0.12500  1.0000
  N   N247      1.0  0.40151  0.65156  0.12500  1.0000
  C   C1466     1.0  0.42032  0.63243  0.12500  1.0000
  C   C1467     1.0  0.42033  0.61752  0.12500  1.0000
  C   C1468     1.0  0.40581  0.61284  0.12500  1.0000
  C   C1469     1.0  0.43327  0.60946  0.12500  1.0000
  C   C1470     1.0  0.44656  0.61726  0.12500  1.0000
  C   C1471     1.0  0.44653  0.63272  0.12500  1.0000
  C   C1472     1.0  0.43322  0.64050  0.12500  1.0000
  N   N248      1.0  0.40160  0.59842  0.12500  1.0000
  H   H481      1.0  0.40190  0.56691  0.12500  1.0000
  H   H482      1.0  0.34820  0.56701  0.12500  1.0000
  H   H483      1.0  0.31692  0.59829  0.12500  1.0000
  H   H484      1.0  0.31690  0.65193  0.12500  1.0000
  H   H485      1.0  0.40177  0.68311  0.12500  1.0000
  H   H486      1.0  0.34813  0.68314  0.12500  1.0000
  H   H487      1.0  0.43312  0.59814  0.12500  1.0000
  H   H488      1.0  0.43305  0.65183  0.12500  1.0000
  C   C1473     1.0  0.45986  0.60968  0.12500  1.0000
  C   C1474     1.0  0.47312  0.61737  0.12500  1.0000
  C   C1475     1.0  0.47310  0.63266  0.12500  1.0000
  C   C1476     1.0  0.45982  0.64033  0.12500  1.0000
  C   C1477     1.0  0.39036  0.54017  0.12500  1.0000
  C   C1478     1.0  0.38267  0.52692  0.12500  1.0000
  C   C1479     1.0  0.36738  0.52694  0.12500  1.0000
  C   C1480     1.0  0.35971  0.54022  0.12500  1.0000
  C   C1481     1.0  0.29017  0.60976  0.12500  1.0000
  C   C1482     1.0  0.27691  0.61743  0.12499  1.0000
  C   C1483     1.0  0.27691  0.63271  0.12500  1.0000
  C   C1484     1.0  0.29017  0.64040  0.12500  1.0000
  C   C1485     1.0  0.39031  0.70987  0.12500  1.0000
  C   C1486     1.0  0.38265  0.72312  0.12500  1.0000
  C   C1487     1.0  0.36738  0.72314  0.12500  1.0000
  C   C1488     1.0  0.35969  0.70988  0.12500  1.0000
  H   H489      1.0  0.45990  0.59836  0.12500  1.0000
  O   O241      1.0  0.48606  0.60995  0.12500  1.0000
  O   O242      1.0  0.48603  0.64011  0.12500  1.0000
  H   H490      1.0  0.45984  0.65166  0.12500  1.0000
  H   H491      1.0  0.40168  0.54013  0.12500  1.0000
  O   O243      1.0  0.39008  0.51396  0.12500  1.0000
  O   O244      1.0  0.35992  0.51401  0.12500  1.0000
  H   H492      1.0  0.34839  0.54020  0.12500  1.0000
  H   H493      1.0  0.29014  0.59845  0.12499  1.0000
  O   O245      1.0  0.26397  0.60999  0.12499  1.0000
  O   O246      1.0  0.26397  0.64011  0.12499  1.0000
  H   H494      1.0  0.29014  0.65171  0.12500  1.0000
  H   H495      1.0  0.40161  0.70989  0.12500  1.0000
  O   O247      1.0  0.39009  0.73606  0.12500  1.0000
  O   O248      1.0  0.35998  0.73607  0.12500  1.0000
  H   H496      1.0  0.34838  0.70992  0.12500  1.0000
  Ni  Ni31      1.0  0.37500  0.62505  0.12500  1.0000
  C   C1489     1.0  0.39056  0.31677  0.12499  1.0000
  C   C1490     1.0  0.38275  0.30349  0.12499  1.0000
  C   C1491     1.0  0.36729  0.30352  0.12499  1.0000
  C   C1492     1.0  0.35950  0.31683  0.12499  1.0000
  C   C1493     1.0  0.36758  0.32973  0.12499  1.0000
  C   C1494     1.0  0.38249  0.32971  0.12499  1.0000
  C   C1495     1.0  0.38717  0.34423  0.12499  1.0000
  N   N249      1.0  0.37501  0.35339  0.12499  1.0000
  C   C1496     1.0  0.36287  0.34427  0.12499  1.0000
  N   N250      1.0  0.34843  0.34854  0.12499  1.0000
  C   C1497     1.0  0.34418  0.36296  0.12499  1.0000
  N   N251      1.0  0.35330  0.37510  0.12499  1.0000
  C   C1498     1.0  0.34416  0.38725  0.12499  1.0000
  C   C1499     1.0  0.32964  0.38256  0.12499  1.0000
  C   C1500     1.0  0.32964  0.36767  0.12499  1.0000
  N   N252      1.0  0.37491  0.39671  0.12499  1.0000
  C   C1501     1.0  0.36277  0.40585  0.12499  1.0000
  N   N253      1.0  0.34838  0.40164  0.12499  1.0000
  C   C1502     1.0  0.36746  0.42037  0.12499  1.0000
  C   C1503     1.0  0.38235  0.42036  0.12499  1.0000
  C   C1504     1.0  0.38705  0.40583  0.12499  1.0000
  C   C1505     1.0  0.31673  0.35960  0.12499  1.0000
  C   C1506     1.0  0.30344  0.36737  0.12499  1.0000
  C   C1507     1.0  0.30343  0.38281  0.12499  1.0000
  C   C1508     1.0  0.31671  0.39062  0.12499  1.0000
  C   C1509     1.0  0.39043  0.43327  0.12499  1.0000
  C   C1510     1.0  0.38266  0.44657  0.12499  1.0000
  C   C1511     1.0  0.36721  0.44658  0.12499  1.0000
  C   C1512     1.0  0.35941  0.43330  0.12499  1.0000
  N   N254      1.0  0.39663  0.37500  0.12499  1.0000
  C   C1513     1.0  0.40574  0.38713  0.12499  1.0000
  N   N255      1.0  0.40147  0.40156  0.12499  1.0000
  C   C1514     1.0  0.42028  0.38243  0.12499  1.0000
  C   C1515     1.0  0.42029  0.36752  0.12499  1.0000
  C   C1516     1.0  0.40578  0.36284  0.12499  1.0000
  C   C1517     1.0  0.43324  0.35946  0.12499  1.0000
  C   C1518     1.0  0.44652  0.36726  0.12499  1.0000
  C   C1519     1.0  0.44650  0.38272  0.12499  1.0000
  C   C1520     1.0  0.43319  0.39051  0.12499  1.0000
  N   N256      1.0  0.40157  0.34842  0.12499  1.0000
  H   H497      1.0  0.40187  0.31691  0.12499  1.0000
  H   H498      1.0  0.34817  0.31700  0.12499  1.0000
  H   H499      1.0  0.31689  0.34828  0.12499  1.0000
  H   H500      1.0  0.31686  0.40193  0.12499  1.0000
  H   H501      1.0  0.40174  0.43311  0.12499  1.0000
  H   H502      1.0  0.34809  0.43314  0.12499  1.0000
  H   H503      1.0  0.43309  0.34814  0.12499  1.0000
  H   H504      1.0  0.43302  0.40183  0.12499  1.0000
  C   C1521     1.0  0.45983  0.35968  0.12500  1.0000
  C   C1522     1.0  0.47308  0.36738  0.12500  1.0000
  C   C1523     1.0  0.47306  0.38266  0.12500  1.0000
  C   C1524     1.0  0.45979  0.39033  0.12500  1.0000
  C   C1525     1.0  0.39033  0.29017  0.12499  1.0000
  C   C1526     1.0  0.38264  0.27691  0.12499  1.0000
  C   C1527     1.0  0.36735  0.27694  0.12499  1.0000
  C   C1528     1.0  0.35969  0.29022  0.12499  1.0000
  C   C1529     1.0  0.29014  0.35976  0.12499  1.0000
  C   C1530     1.0  0.27688  0.36742  0.12499  1.0000
  C   C1531     1.0  0.27688  0.38271  0.12499  1.0000
  C   C1532     1.0  0.29014  0.39039  0.12499  1.0000
  C   C1533     1.0  0.39027  0.45987  0.12499  1.0000
  C   C1534     1.0  0.38262  0.47312  0.12499  1.0000
  C   C1535     1.0  0.36735  0.47313  0.12499  1.0000
  C   C1536     1.0  0.35965  0.45988  0.12499  1.0000
  H   H505      1.0  0.45987  0.34836  0.12500  1.0000
  O   O249      1.0  0.48603  0.35995  0.12500  1.0000
  O   O250      1.0  0.48600  0.39011  0.12500  1.0000
  H   H506      1.0  0.45981  0.40166  0.12500  1.0000
  H   H507      1.0  0.40165  0.29013  0.12499  1.0000
  O   O251      1.0  0.39006  0.26396  0.12499  1.0000
  O   O252      1.0  0.35990  0.26400  0.12499  1.0000
  H   H508      1.0  0.34836  0.29020  0.12499  1.0000
  H   H509      1.0  0.29011  0.34845  0.12499  1.0000
  O   O253      1.0  0.26394  0.35998  0.12499  1.0000
  O   O254      1.0  0.26394  0.39011  0.12499  1.0000
  H   H510      1.0  0.29010  0.40170  0.12499  1.0000
  H   H511      1.0  0.40157  0.45989  0.12499  1.0000
  O   O255      1.0  0.39005  0.48606  0.12499  1.0000
  O   O256      1.0  0.35994  0.48607  0.12499  1.0000
  H   H512      1.0  0.34834  0.45992  0.12499  1.0000
  Ni  Ni32      1.0  0.37496  0.37505  0.12499  1.0000
  C   C1537     1.0  0.87502  0.68325  0.64056  1.0000
  C   C1538     1.0  0.87502  0.69653  0.63276  1.0000
  C   C1539     1.0  0.87502  0.69650  0.61730  1.0000
  C   C1540     1.0  0.87502  0.68320  0.60951  1.0000
  C   C1541     1.0  0.87502  0.67029  0.61759  1.0000
  C   C1542     1.0  0.87502  0.67031  0.63250  1.0000
  C   C1543     1.0  0.87502  0.65580  0.63717  1.0000
  N   N257      1.0  0.87502  0.64663  0.62502  1.0000
  C   C1544     1.0  0.87502  0.65576  0.61288  1.0000
  N   N258      1.0  0.87502  0.65149  0.59844  1.0000
  C   C1545     1.0  0.87502  0.63707  0.59418  1.0000
  N   N259      1.0  0.87502  0.62493  0.60331  1.0000
  C   C1546     1.0  0.87502  0.61278  0.59416  1.0000
  C   C1547     1.0  0.87502  0.61747  0.57965  1.0000
  C   C1548     1.0  0.87502  0.63236  0.57965  1.0000
  N   N260      1.0  0.87502  0.60332  0.62491  1.0000
  C   C1549     1.0  0.87502  0.59418  0.61277  1.0000
  N   N261      1.0  0.87502  0.59838  0.59838  1.0000
  C   C1550     1.0  0.87502  0.57965  0.61746  1.0000
  C   C1551     1.0  0.87501  0.57967  0.63235  1.0000
  C   C1552     1.0  0.87502  0.59419  0.63705  1.0000
  C   C1553     1.0  0.87502  0.64043  0.56673  1.0000
  C   C1554     1.0  0.87502  0.63266  0.55344  1.0000
  C   C1555     1.0  0.87502  0.61722  0.55344  1.0000
  C   C1556     1.0  0.87502  0.60941  0.56672  1.0000
  C   C1557     1.0  0.87501  0.56675  0.64042  1.0000
  C   C1558     1.0  0.87501  0.55345  0.63265  1.0000
  C   C1559     1.0  0.87501  0.55345  0.61721  1.0000
  C   C1560     1.0  0.87501  0.56673  0.60940  1.0000
  N   N262      1.0  0.87502  0.62503  0.64663  1.0000
  C   C1561     1.0  0.87502  0.61289  0.65574  1.0000
  N   N263      1.0  0.87502  0.59846  0.65147  1.0000
  C   C1562     1.0  0.87502  0.61759  0.67028  1.0000
  C   C1563     1.0  0.87502  0.63250  0.67030  1.0000
  C   C1564     1.0  0.87502  0.63718  0.65578  1.0000
  C   C1565     1.0  0.87502  0.64056  0.68324  1.0000
  C   C1566     1.0  0.87502  0.63275  0.69652  1.0000
  C   C1567     1.0  0.87501  0.61730  0.69650  1.0000
  C   C1568     1.0  0.87501  0.60951  0.68319  1.0000
  N   N264      1.0  0.87502  0.65160  0.65157  1.0000
  H   H513      1.0  0.87502  0.68311  0.65188  1.0000
  H   H514      1.0  0.87502  0.68302  0.59818  1.0000
  H   H515      1.0  0.87502  0.65175  0.56690  1.0000
  H   H516      1.0  0.87502  0.59810  0.56687  1.0000
  H   H517      1.0  0.87501  0.56691  0.65174  1.0000
  H   H518      1.0  0.87502  0.56689  0.59809  1.0000
  H   H519      1.0  0.87502  0.65188  0.68309  1.0000
  H   H520      1.0  0.87501  0.59819  0.68301  1.0000
  C   C1569     1.0  0.87502  0.64034  0.70983  1.0000
  C   C1570     1.0  0.87501  0.63264  0.72308  1.0000
  C   C1571     1.0  0.87501  0.61735  0.72306  1.0000
  C   C1572     1.0  0.87501  0.60969  0.70978  1.0000
  C   C1573     1.0  0.87502  0.70985  0.64034  1.0000
  C   C1574     1.0  0.87502  0.72311  0.63265  1.0000
  C   C1575     1.0  0.87503  0.72309  0.61736  1.0000
  C   C1576     1.0  0.87503  0.70981  0.60970  1.0000
  C   C1577     1.0  0.87502  0.64028  0.54015  1.0000
  C   C1578     1.0  0.87502  0.63261  0.52688  1.0000
  C   C1579     1.0  0.87502  0.61733  0.52688  1.0000
  C   C1580     1.0  0.87502  0.60964  0.54014  1.0000
  C   C1581     1.0  0.87501  0.54015  0.64026  1.0000
  C   C1582     1.0  0.87501  0.52690  0.63261  1.0000
  C   C1583     1.0  0.87501  0.52689  0.61734  1.0000
  C   C1584     1.0  0.87501  0.54015  0.60965  1.0000
  H   H521      1.0  0.87502  0.65166  0.70987  1.0000
  O   O257      1.0  0.87501  0.64006  0.73603  1.0000
  O   O258      1.0  0.87501  0.60991  0.73599  1.0000
  H   H522      1.0  0.87501  0.59836  0.70981  1.0000
  H   H523      1.0  0.87502  0.70990  0.65166  1.0000
  O   O259      1.0  0.87503  0.73607  0.64007  1.0000
  O   O260      1.0  0.87503  0.73602  0.60991  1.0000
  H   H524      1.0  0.87503  0.70983  0.59837  1.0000
  H   H525      1.0  0.87502  0.65159  0.54011  1.0000
  O   O261      1.0  0.87502  0.64005  0.51394  1.0000
  O   O262      1.0  0.87502  0.60993  0.51394  1.0000
  H   H526      1.0  0.87502  0.59833  0.54011  1.0000
  H   H527      1.0  0.87501  0.54013  0.65156  1.0000
  O   O263      1.0  0.87501  0.51396  0.64004  1.0000
  O   O264      1.0  0.87501  0.51396  0.60993  1.0000
  H   H528      1.0  0.87501  0.54011  0.59834  1.0000
  Ni  Ni33      1.0  0.87502  0.62498  0.62497  1.0000
  C   C1585     1.0  0.39060  0.87505  0.68328  1.0000
  C   C1586     1.0  0.38280  0.87505  0.69656  1.0000
  C   C1587     1.0  0.36733  0.87505  0.69653  1.0000
  C   C1588     1.0  0.35954  0.87505  0.68323  1.0000
  C   C1589     1.0  0.36762  0.87505  0.67032  1.0000
  C   C1590     1.0  0.38253  0.87505  0.67034  1.0000
  C   C1591     1.0  0.38721  0.87505  0.65582  1.0000
  N   N265      1.0  0.37505  0.87505  0.64666  1.0000
  C   C1592     1.0  0.36292  0.87505  0.65578  1.0000
  N   N266      1.0  0.34847  0.87505  0.65151  1.0000
  C   C1593     1.0  0.34422  0.87505  0.63709  1.0000
  N   N267      1.0  0.35334  0.87505  0.62495  1.0000
  C   C1594     1.0  0.34420  0.87506  0.61280  1.0000
  C   C1595     1.0  0.32968  0.87506  0.61749  1.0000
  C   C1596     1.0  0.32968  0.87505  0.63238  1.0000
  N   N268      1.0  0.37495  0.87505  0.60334  1.0000
  C   C1597     1.0  0.36281  0.87506  0.59420  1.0000
  N   N269      1.0  0.34841  0.87506  0.59841  1.0000
  C   C1598     1.0  0.36749  0.87506  0.57968  1.0000
  C   C1599     1.0  0.38239  0.87506  0.57969  1.0000
  C   C1600     1.0  0.38708  0.87506  0.59422  1.0000
  C   C1601     1.0  0.31677  0.87505  0.64045  1.0000
  C   C1602     1.0  0.30348  0.87506  0.63269  1.0000
  C   C1603     1.0  0.30347  0.87506  0.61725  1.0000
  C   C1604     1.0  0.31675  0.87506  0.60944  1.0000
  C   C1605     1.0  0.39046  0.87506  0.56677  1.0000
  C   C1606     1.0  0.38269  0.87506  0.55347  1.0000
  C   C1607     1.0  0.36724  0.87506  0.55347  1.0000
  C   C1608     1.0  0.35944  0.87506  0.56675  1.0000
  N   N270      1.0  0.39666  0.87505  0.62505  1.0000
  C   C1609     1.0  0.40578  0.87505  0.61291  1.0000
  N   N271      1.0  0.40151  0.87505  0.59848  1.0000
  C   C1610     1.0  0.42032  0.87505  0.61761  1.0000
  C   C1611     1.0  0.42033  0.87505  0.63252  1.0000
  C   C1612     1.0  0.40582  0.87505  0.63720  1.0000
  C   C1613     1.0  0.43327  0.87505  0.64058  1.0000
  C   C1614     1.0  0.44656  0.87505  0.63278  1.0000
  C   C1615     1.0  0.44654  0.87505  0.61732  1.0000
  C   C1616     1.0  0.43323  0.87505  0.60954  1.0000
  N   N272      1.0  0.40161  0.87505  0.65162  1.0000
  H   H529      1.0  0.40192  0.87505  0.68313  1.0000
  H   H530      1.0  0.34821  0.87505  0.68305  1.0000
  H   H531      1.0  0.31693  0.87505  0.65177  1.0000
  H   H532      1.0  0.31690  0.87506  0.59812  1.0000
  H   H533      1.0  0.40177  0.87506  0.56693  1.0000
  H   H534      1.0  0.34812  0.87506  0.56691  1.0000
  H   H535      1.0  0.43313  0.87505  0.65190  1.0000
  H   H536      1.0  0.43305  0.87505  0.59821  1.0000
  C   C1617     1.0  0.45987  0.87505  0.64036  1.0000
  C   C1618     1.0  0.47312  0.87505  0.63266  1.0000
  C   C1619     1.0  0.47310  0.87505  0.61737  1.0000
  C   C1620     1.0  0.45982  0.87505  0.60971  1.0000
  C   C1621     1.0  0.39038  0.87505  0.70988  1.0000
  C   C1622     1.0  0.38269  0.87504  0.72314  1.0000
  C   C1623     1.0  0.36740  0.87505  0.72311  1.0000
  C   C1624     1.0  0.35973  0.87505  0.70983  1.0000
  C   C1625     1.0  0.29018  0.87506  0.64030  1.0000
  C   C1626     1.0  0.27692  0.87506  0.63263  1.0000
  C   C1627     1.0  0.27691  0.87506  0.61735  1.0000
  C   C1628     1.0  0.29017  0.87506  0.60967  1.0000
  C   C1629     1.0  0.39030  0.87506  0.54017  1.0000
  C   C1630     1.0  0.38264  0.87506  0.52692  1.0000
  C   C1631     1.0  0.36737  0.87506  0.52691  1.0000
  C   C1632     1.0  0.35968  0.87506  0.54017  1.0000
  H   H537      1.0  0.45991  0.87505  0.65168  1.0000
  O   O265      1.0  0.48607  0.87505  0.64008  1.0000
  O   O266      1.0  0.48603  0.87505  0.60993  1.0000
  H   H538      1.0  0.45984  0.87505  0.59838  1.0000
  H   H539      1.0  0.40170  0.87504  0.70992  1.0000
  O   O267      1.0  0.39011  0.87504  0.73609  1.0000
  O   O268      1.0  0.35995  0.87504  0.73605  1.0000
  H   H540      1.0  0.34841  0.87505  0.70985  1.0000
  H   H541      1.0  0.29015  0.87506  0.65161  1.0000
  O   O269      1.0  0.26397  0.87506  0.64008  1.0000
  O   O270      1.0  0.26397  0.87506  0.60995  1.0000
  H   H542      1.0  0.29014  0.87506  0.59835  1.0000
  H   H543      1.0  0.40160  0.87506  0.54015  1.0000
  O   O271      1.0  0.39008  0.87506  0.51398  1.0000
  O   O272      1.0  0.35996  0.87506  0.51398  1.0000
  H   H544      1.0  0.34837  0.87506  0.54013  1.0000
  Ni  Ni34      1.0  0.37500  0.87505  0.62500  1.0000
  C   C1633     1.0  0.12497  0.31677  0.60944  1.0000
  C   C1634     1.0  0.12497  0.30349  0.61724  1.0000
  C   C1635     1.0  0.12496  0.30352  0.63270  1.0000
  C   C1636     1.0  0.12497  0.31683  0.64050  1.0000
  C   C1637     1.0  0.12497  0.32974  0.63241  1.0000
  C   C1638     1.0  0.12497  0.32971  0.61751  1.0000
  C   C1639     1.0  0.12497  0.34423  0.61283  1.0000
  N   N273      1.0  0.12497  0.35340  0.62498  1.0000
  C   C1640     1.0  0.12497  0.34427  0.63712  1.0000
  N   N274      1.0  0.12497  0.34854  0.65156  1.0000
  C   C1641     1.0  0.12497  0.36296  0.65582  1.0000
  N   N275      1.0  0.12497  0.37510  0.64669  1.0000
  C   C1642     1.0  0.12497  0.38725  0.65584  1.0000
  C   C1643     1.0  0.12497  0.38256  0.67035  1.0000
  C   C1644     1.0  0.12497  0.36767  0.67035  1.0000
  N   N276      1.0  0.12497  0.39671  0.62509  1.0000
  C   C1645     1.0  0.12498  0.40585  0.63723  1.0000
  N   N277      1.0  0.12497  0.40164  0.65162  1.0000
  C   C1646     1.0  0.12498  0.42037  0.63254  1.0000
  C   C1647     1.0  0.12498  0.42036  0.61765  1.0000
  C   C1648     1.0  0.12498  0.40583  0.61295  1.0000
  C   C1649     1.0  0.12497  0.35960  0.68327  1.0000
  C   C1650     1.0  0.12497  0.36736  0.69655  1.0000
  C   C1651     1.0  0.12497  0.38281  0.69656  1.0000
  C   C1652     1.0  0.12497  0.39062  0.68328  1.0000
  C   C1653     1.0  0.12498  0.43328  0.60957  1.0000
  C   C1654     1.0  0.12498  0.44657  0.61734  1.0000
  C   C1655     1.0  0.12498  0.44658  0.63279  1.0000
  C   C1656     1.0  0.12498  0.43330  0.64059  1.0000
  N   N278      1.0  0.12497  0.37500  0.60337  1.0000
  C   C1657     1.0  0.12497  0.38713  0.59426  1.0000
  N   N279      1.0  0.12498  0.40157  0.59853  1.0000
  C   C1658     1.0  0.12497  0.38243  0.57971  1.0000
  C   C1659     1.0  0.12497  0.36753  0.57970  1.0000
  C   C1660     1.0  0.12497  0.36284  0.59422  1.0000
  C   C1661     1.0  0.12497  0.35947  0.56676  1.0000
  C   C1662     1.0  0.12497  0.36727  0.55348  1.0000
  C   C1663     1.0  0.12498  0.38273  0.55350  1.0000
  C   C1664     1.0  0.12498  0.39051  0.56681  1.0000
  N   N280      1.0  0.12497  0.34843  0.59843  1.0000
  H   H545      1.0  0.12497  0.31692  0.59812  1.0000
  H   H546      1.0  0.12497  0.31700  0.65182  1.0000
  H   H547      1.0  0.12497  0.34828  0.68310  1.0000
  H   H548      1.0  0.12497  0.40193  0.68313  1.0000
  H   H549      1.0  0.12498  0.43311  0.59826  1.0000
  H   H550      1.0  0.12498  0.43314  0.65191  1.0000
  H   H551      1.0  0.12497  0.34815  0.56691  1.0000
  H   H552      1.0  0.12498  0.40184  0.56698  1.0000
  C   C1665     1.0  0.12497  0.35968  0.54017  1.0000
  C   C1666     1.0  0.12497  0.36738  0.52692  1.0000
  C   C1667     1.0  0.12498  0.38267  0.52694  1.0000
  C   C1668     1.0  0.12498  0.39034  0.54021  1.0000
  C   C1669     1.0  0.12496  0.29017  0.60966  1.0000
  C   C1670     1.0  0.12496  0.27692  0.61735  1.0000
  C   C1671     1.0  0.12496  0.27694  0.63264  1.0000
  C   C1672     1.0  0.12496  0.29022  0.64031  1.0000
  C   C1673     1.0  0.12497  0.35975  0.70985  1.0000
  C   C1674     1.0  0.12497  0.36742  0.72312  1.0000
  C   C1675     1.0  0.12497  0.38270  0.72312  1.0000
  C   C1676     1.0  0.12497  0.39039  0.70986  1.0000
  C   C1677     1.0  0.12498  0.45987  0.60973  1.0000
  C   C1678     1.0  0.12498  0.47312  0.61738  1.0000
  C   C1679     1.0  0.12498  0.47314  0.63265  1.0000
  C   C1680     1.0  0.12498  0.45988  0.64035  1.0000
  H   H553      1.0  0.12497  0.34837  0.54013  1.0000
  O   O273      1.0  0.12497  0.35996  0.51397  1.0000
  O   O274      1.0  0.12498  0.39012  0.51400  1.0000
  H   H554      1.0  0.12498  0.40167  0.54019  1.0000
  H   H555      1.0  0.12496  0.29013  0.59834  1.0000
  O   O275      1.0  0.12496  0.26396  0.60994  1.0000
  O   O276      1.0  0.12496  0.26401  0.64009  1.0000
  H   H556      1.0  0.12496  0.29020  0.65163  1.0000
  H   H557      1.0  0.12497  0.34844  0.70989  1.0000
  O   O277      1.0  0.12497  0.35998  0.73606  1.0000
  O   O278      1.0  0.12497  0.39010  0.73605  1.0000
  H   H558      1.0  0.12497  0.40170  0.70989  1.0000
  H   H559      1.0  0.12498  0.45990  0.59843  1.0000
  O   O279      1.0  0.12499  0.48606  0.60995  1.0000
  O   O280      1.0  0.12498  0.48607  0.64006  1.0000
  H   H560      1.0  0.12498  0.45992  0.65166  1.0000
  Ni  Ni35      1.0  0.12497  0.37505  0.62503  1.0000
  C   C1681     1.0  0.64057  0.12501  0.68328  1.0000
  C   C1682     1.0  0.63276  0.12501  0.69656  1.0000
  C   C1683     1.0  0.61730  0.12501  0.69653  1.0000
  C   C1684     1.0  0.60951  0.12501  0.68323  1.0000
  C   C1685     1.0  0.61759  0.12501  0.67032  1.0000
  C   C1686     1.0  0.63250  0.12501  0.67034  1.0000
  C   C1687     1.0  0.63718  0.12501  0.65583  1.0000
  N   N281      1.0  0.62502  0.12501  0.64666  1.0000
  C   C1688     1.0  0.61288  0.12501  0.65578  1.0000
  N   N282      1.0  0.59844  0.12501  0.65151  1.0000
  C   C1689     1.0  0.59418  0.12501  0.63709  1.0000
  N   N283      1.0  0.60331  0.12501  0.62496  1.0000
  C   C1690     1.0  0.59416  0.12501  0.61281  1.0000
  C   C1691     1.0  0.57965  0.12501  0.61749  1.0000
  C   C1692     1.0  0.57964  0.12501  0.63239  1.0000
  N   N284      1.0  0.62491  0.12501  0.60334  1.0000
  C   C1693     1.0  0.61277  0.12501  0.59420  1.0000
  N   N285      1.0  0.59838  0.12501  0.59841  1.0000
  C   C1694     1.0  0.61746  0.12501  0.57968  1.0000
  C   C1695     1.0  0.63235  0.12500  0.57969  1.0000
  C   C1696     1.0  0.63705  0.12500  0.59422  1.0000
  C   C1697     1.0  0.56673  0.12502  0.64046  1.0000
  C   C1698     1.0  0.55344  0.12502  0.63269  1.0000
  C   C1699     1.0  0.55343  0.12502  0.61725  1.0000
  C   C1700     1.0  0.56671  0.12501  0.60944  1.0000
  C   C1701     1.0  0.64042  0.12500  0.56677  1.0000
  C   C1702     1.0  0.63265  0.12500  0.55348  1.0000
  C   C1703     1.0  0.61721  0.12500  0.55347  1.0000
  C   C1704     1.0  0.60940  0.12501  0.56675  1.0000
  N   N286      1.0  0.64663  0.12500  0.62505  1.0000
  C   C1705     1.0  0.65574  0.12500  0.61292  1.0000
  N   N287      1.0  0.65147  0.12500  0.59848  1.0000
  C   C1706     1.0  0.67029  0.12500  0.61762  1.0000
  C   C1707     1.0  0.67030  0.12500  0.63252  1.0000
  C   C1708     1.0  0.65578  0.12500  0.63721  1.0000
  C   C1709     1.0  0.68324  0.12500  0.64058  1.0000
  C   C1710     1.0  0.69653  0.12500  0.63278  1.0000
  C   C1711     1.0  0.69650  0.12500  0.61732  1.0000
  C   C1712     1.0  0.68319  0.12500  0.60954  1.0000
  N   N288      1.0  0.65158  0.12500  0.65163  1.0000
  H   H561      1.0  0.65188  0.12501  0.68314  1.0000
  H   H562      1.0  0.59818  0.12501  0.68305  1.0000
  H   H563      1.0  0.56690  0.12502  0.65178  1.0000
  H   H564      1.0  0.56686  0.12501  0.59813  1.0000
  H   H565      1.0  0.65173  0.12500  0.56694  1.0000
  H   H566      1.0  0.59809  0.12501  0.56691  1.0000
  H   H567      1.0  0.68310  0.12500  0.65190  1.0000
  H   H568      1.0  0.68302  0.12500  0.59821  1.0000
  C   C1713     1.0  0.70983  0.12500  0.64037  1.0000
  C   C1714     1.0  0.72309  0.12499  0.63267  1.0000
  C   C1715     1.0  0.72306  0.12499  0.61738  1.0000
  C   C1716     1.0  0.70979  0.12499  0.60971  1.0000
  C   C1717     1.0  0.64034  0.12501  0.70988  1.0000
  C   C1718     1.0  0.63265  0.12501  0.72314  1.0000
  C   C1719     1.0  0.61737  0.12501  0.72312  1.0000
  C   C1720     1.0  0.60970  0.12501  0.70984  1.0000
  C   C1721     1.0  0.54014  0.12502  0.64030  1.0000
  C   C1722     1.0  0.52688  0.12502  0.63264  1.0000
  C   C1723     1.0  0.52688  0.12502  0.61736  1.0000
  C   C1724     1.0  0.54014  0.12502  0.60967  1.0000
  C   C1725     1.0  0.64026  0.12500  0.54018  1.0000
  C   C1726     1.0  0.63261  0.12500  0.52693  1.0000
  C   C1727     1.0  0.61734  0.12500  0.52691  1.0000
  C   C1728     1.0  0.60965  0.12500  0.54017  1.0000
  H   H569      1.0  0.70987  0.12500  0.65168  1.0000
  O   O281      1.0  0.73604  0.12499  0.64009  1.0000
  O   O282      1.0  0.73600  0.12499  0.60993  1.0000
  H   H570      1.0  0.70981  0.12499  0.59838  1.0000
  H   H571      1.0  0.65167  0.12501  0.70993  1.0000
  O   O283      1.0  0.64007  0.12501  0.73610  1.0000
  O   O284      1.0  0.60991  0.12501  0.73605  1.0000
  H   H572      1.0  0.59837  0.12501  0.70986  1.0000
  H   H573      1.0  0.54011  0.12502  0.65162  1.0000
  O   O285      1.0  0.51394  0.12502  0.64008  1.0000
  O   O286      1.0  0.51394  0.12502  0.60996  1.0000
  H   H574      1.0  0.54010  0.12502  0.59836  1.0000
  H   H575      1.0  0.65156  0.12500  0.54015  1.0000
  O   O287      1.0  0.64004  0.12500  0.51398  1.0000
  O   O288      1.0  0.60993  0.12500  0.51398  1.0000
  H   H576      1.0  0.59833  0.12501  0.54013  1.0000
  Ni  Ni36      1.0  0.62497  0.12501  0.62500  1.0000
  C   C1729     1.0  0.87497  0.31674  0.35944  1.0000
  C   C1730     1.0  0.87497  0.30346  0.36724  1.0000
  C   C1731     1.0  0.87497  0.30349  0.38270  1.0000
  C   C1732     1.0  0.87497  0.31680  0.39049  1.0000
  C   C1733     1.0  0.87497  0.32970  0.38241  1.0000
  C   C1734     1.0  0.87497  0.32968  0.36750  1.0000
  C   C1735     1.0  0.87497  0.34420  0.36282  1.0000
  N   N289      1.0  0.87497  0.35336  0.37498  1.0000
  C   C1736     1.0  0.87497  0.34424  0.38712  1.0000
  N   N290      1.0  0.87497  0.34851  0.40156  1.0000
  C   C1737     1.0  0.87497  0.36293  0.40582  1.0000
  N   N291      1.0  0.87497  0.37507  0.39669  1.0000
  C   C1738     1.0  0.87497  0.38721  0.40584  1.0000
  C   C1739     1.0  0.87497  0.38253  0.42035  1.0000
  C   C1740     1.0  0.87497  0.36764  0.42035  1.0000
  N   N292      1.0  0.87497  0.39668  0.37509  1.0000
  C   C1741     1.0  0.87498  0.40582  0.38723  1.0000
  N   N293      1.0  0.87497  0.40161  0.40162  1.0000
  C   C1742     1.0  0.87498  0.42034  0.38254  1.0000
  C   C1743     1.0  0.87498  0.42033  0.36765  1.0000
  C   C1744     1.0  0.87497  0.40580  0.36295  1.0000
  C   C1745     1.0  0.87497  0.35957  0.43327  1.0000
  C   C1746     1.0  0.87497  0.36733  0.44655  1.0000
  C   C1747     1.0  0.87497  0.38277  0.44656  1.0000
  C   C1748     1.0  0.87497  0.39058  0.43328  1.0000
  C   C1749     1.0  0.87498  0.43324  0.35957  1.0000
  C   C1750     1.0  0.87498  0.44654  0.36734  1.0000
  C   C1751     1.0  0.87498  0.44655  0.38279  1.0000
  C   C1752     1.0  0.87498  0.43327  0.39059  1.0000
  N   N294      1.0  0.87497  0.37497  0.35337  1.0000
  C   C1753     1.0  0.87497  0.38710  0.34426  1.0000
  N   N295      1.0  0.87497  0.40154  0.34853  1.0000
  C   C1754     1.0  0.87497  0.38240  0.32971  1.0000
  C   C1755     1.0  0.87497  0.36750  0.32970  1.0000
  C   C1756     1.0  0.87497  0.36281  0.34422  1.0000
  C   C1757     1.0  0.87497  0.35944  0.31676  1.0000
  C   C1758     1.0  0.87497  0.36724  0.30347  1.0000
  C   C1759     1.0  0.87497  0.38270  0.30350  1.0000
  C   C1760     1.0  0.87497  0.39048  0.31681  1.0000
  N   N296      1.0  0.87497  0.34840  0.34842  1.0000
  H   H577      1.0  0.87497  0.31688  0.34812  1.0000
  H   H578      1.0  0.87497  0.31697  0.40182  1.0000
  H   H579      1.0  0.87497  0.34825  0.43310  1.0000
  H   H580      1.0  0.87498  0.40190  0.43313  1.0000
  H   H581      1.0  0.87498  0.43308  0.34826  1.0000
  H   H582      1.0  0.87498  0.43311  0.40191  1.0000
  H   H583      1.0  0.87497  0.34812  0.31690  1.0000
  H   H584      1.0  0.87497  0.40181  0.31698  1.0000
  C   C1761     1.0  0.87497  0.35965  0.29017  1.0000
  C   C1762     1.0  0.87497  0.36735  0.27692  1.0000
  C   C1763     1.0  0.87497  0.38264  0.27694  1.0000
  C   C1764     1.0  0.87497  0.39031  0.29021  1.0000
  C   C1765     1.0  0.87497  0.29014  0.35966  1.0000
  C   C1766     1.0  0.87497  0.27688  0.36735  1.0000
  C   C1767     1.0  0.87497  0.27691  0.38263  1.0000
  C   C1768     1.0  0.87497  0.29019  0.39030  1.0000
  C   C1769     1.0  0.87497  0.35972  0.45985  1.0000
  C   C1770     1.0  0.87497  0.36739  0.47312  1.0000
  C   C1771     1.0  0.87497  0.38267  0.47312  1.0000
  C   C1772     1.0  0.87497  0.39035  0.45986  1.0000
  C   C1773     1.0  0.87498  0.45984  0.35973  1.0000
  C   C1774     1.0  0.87498  0.47309  0.36739  1.0000
  C   C1775     1.0  0.87498  0.47310  0.38266  1.0000
  C   C1776     1.0  0.87498  0.45985  0.39035  1.0000
  H   H585      1.0  0.87497  0.34834  0.29013  1.0000
  O   O289      1.0  0.87497  0.35993  0.26397  1.0000
  O   O290      1.0  0.87497  0.39009  0.26400  1.0000
  H   H586      1.0  0.87497  0.40164  0.29019  1.0000
  H   H587      1.0  0.87497  0.29010  0.34834  1.0000
  O   O291      1.0  0.87497  0.26393  0.35993  1.0000
  O   O292      1.0  0.87497  0.26397  0.39009  1.0000
  H   H588      1.0  0.87497  0.29017  0.40163  1.0000
  H   H589      1.0  0.87497  0.34841  0.45988  1.0000
  O   O293      1.0  0.87497  0.35994  0.48606  1.0000
  O   O294      1.0  0.87497  0.39007  0.48605  1.0000
  H   H590      1.0  0.87498  0.40166  0.45989  1.0000
  H   H591      1.0  0.87498  0.45987  0.34843  1.0000
  O   O295      1.0  0.87498  0.48603  0.35995  1.0000
  O   O296      1.0  0.87498  0.48604  0.39007  1.0000
  H   H592      1.0  0.87498  0.45988  0.40166  1.0000
  Ni  Ni37      1.0  0.87497  0.37502  0.37503  1.0000
  C   C1777     1.0  0.60945  0.87498  0.31674  1.0000
  C   C1778     1.0  0.61725  0.87498  0.30346  1.0000
  C   C1779     1.0  0.63271  0.87498  0.30349  1.0000
  C   C1780     1.0  0.64051  0.87498  0.31680  1.0000
  C   C1781     1.0  0.63242  0.87498  0.32971  1.0000
  C   C1782     1.0  0.61751  0.87498  0.32968  1.0000
  C   C1783     1.0  0.61283  0.87498  0.34420  1.0000
  N   N297      1.0  0.62499  0.87498  0.35337  1.0000
  C   C1784     1.0  0.63713  0.87498  0.34424  1.0000
  N   N298      1.0  0.65157  0.87498  0.34851  1.0000
  C   C1785     1.0  0.65583  0.87498  0.36294  1.0000
  N   N299      1.0  0.64670  0.87498  0.37507  1.0000
  C   C1786     1.0  0.65584  0.87498  0.38722  1.0000
  C   C1787     1.0  0.67036  0.87498  0.38254  1.0000
  C   C1788     1.0  0.67036  0.87497  0.36764  1.0000
  N   N300      1.0  0.62509  0.87498  0.39668  1.0000
  C   C1789     1.0  0.63723  0.87498  0.40582  1.0000
  N   N301      1.0  0.65163  0.87498  0.40162  1.0000
  C   C1790     1.0  0.63255  0.87498  0.42035  1.0000
  C   C1791     1.0  0.61765  0.87498  0.42034  1.0000
  C   C1792     1.0  0.61296  0.87498  0.40581  1.0000
  C   C1793     1.0  0.68328  0.87497  0.35957  1.0000
  C   C1794     1.0  0.69657  0.87497  0.36734  1.0000
  C   C1795     1.0  0.69657  0.87497  0.38278  1.0000
  C   C1796     1.0  0.68329  0.87497  0.39059  1.0000
  C   C1797     1.0  0.60958  0.87498  0.43325  1.0000
  C   C1798     1.0  0.61735  0.87498  0.44655  1.0000
  C   C1799     1.0  0.63280  0.87498  0.44655  1.0000
  C   C1800     1.0  0.64060  0.87498  0.43327  1.0000
  N   N302      1.0  0.60338  0.87498  0.37497  1.0000
  C   C1801     1.0  0.59426  0.87499  0.38711  1.0000
  N   N303      1.0  0.59853  0.87499  0.40154  1.0000
  C   C1802     1.0  0.57972  0.87499  0.38241  1.0000
  C   C1803     1.0  0.57971  0.87499  0.36750  1.0000
  C   C1804     1.0  0.59423  0.87498  0.36282  1.0000
  C   C1805     1.0  0.56677  0.87499  0.35944  1.0000
  C   C1806     1.0  0.55348  0.87499  0.36724  1.0000
  C   C1807     1.0  0.55350  0.87499  0.38270  1.0000
  C   C1808     1.0  0.56681  0.87499  0.39048  1.0000
  N   N304      1.0  0.59843  0.87498  0.34840  1.0000
  H   H593      1.0  0.59813  0.87498  0.31689  1.0000
  H   H594      1.0  0.65183  0.87498  0.31697  1.0000
  H   H595      1.0  0.68311  0.87497  0.34825  1.0000
  H   H596      1.0  0.68314  0.87497  0.40190  1.0000
  H   H597      1.0  0.59827  0.87499  0.43309  1.0000
  H   H598      1.0  0.65192  0.87498  0.43312  1.0000
  H   H599      1.0  0.56691  0.87499  0.34812  1.0000
  H   H600      1.0  0.56699  0.87499  0.40181  1.0000
  C   C1809     1.0  0.54018  0.87499  0.35966  1.0000
  C   C1810     1.0  0.52692  0.87499  0.36735  1.0000
  C   C1811     1.0  0.52694  0.87499  0.38264  1.0000
  C   C1812     1.0  0.54022  0.87499  0.39031  1.0000
  C   C1813     1.0  0.60967  0.87498  0.29014  1.0000
  C   C1814     1.0  0.61736  0.87498  0.27689  1.0000
  C   C1815     1.0  0.63265  0.87498  0.27691  1.0000
  C   C1816     1.0  0.64032  0.87498  0.29019  1.0000
  C   C1817     1.0  0.70987  0.87497  0.35973  1.0000
  C   C1818     1.0  0.72313  0.87497  0.36740  1.0000
  C   C1819     1.0  0.72313  0.87497  0.38268  1.0000
  C   C1820     1.0  0.70987  0.87497  0.39036  1.0000
  C   C1821     1.0  0.60974  0.87499  0.45985  1.0000
  C   C1822     1.0  0.61739  0.87498  0.47310  1.0000
  C   C1823     1.0  0.63266  0.87498  0.47311  1.0000
  C   C1824     1.0  0.64036  0.87498  0.45986  1.0000
  H   H601      1.0  0.54014  0.87499  0.34834  1.0000
  O   O297      1.0  0.51397  0.87499  0.35993  1.0000
  O   O298      1.0  0.51401  0.87500  0.39009  1.0000
  H   H602      1.0  0.54020  0.87499  0.40164  1.0000
  H   H603      1.0  0.59835  0.87498  0.29010  1.0000
  O   O299      1.0  0.60994  0.87498  0.26393  1.0000
  O   O300      1.0  0.64010  0.87498  0.26398  1.0000
  H   H604      1.0  0.65164  0.87497  0.29017  1.0000
  H   H605      1.0  0.70990  0.87497  0.34842  1.0000
  O   O301      1.0  0.73607  0.87497  0.35995  1.0000
  O   O302      1.0  0.73607  0.87497  0.39008  1.0000
  H   H606      1.0  0.70990  0.87497  0.40167  1.0000
  H   H607      1.0  0.59844  0.87499  0.45987  1.0000
  O   O303      1.0  0.60996  0.87499  0.48604  1.0000
  O   O304      1.0  0.64007  0.87498  0.48605  1.0000
  H   H608      1.0  0.65167  0.87498  0.45989  1.0000
  Ni  Ni38      1.0  0.62504  0.87498  0.37502  1.0000
  C   C1825     1.0  0.12505  0.56677  0.35944  1.0000
  C   C1826     1.0  0.12505  0.55349  0.36724  1.0000
  C   C1827     1.0  0.12505  0.55352  0.38270  1.0000
  C   C1828     1.0  0.12505  0.56682  0.39050  1.0000
  C   C1829     1.0  0.12505  0.57973  0.38242  1.0000
  C   C1830     1.0  0.12505  0.57971  0.36751  1.0000
  C   C1831     1.0  0.12505  0.59423  0.36283  1.0000
  N   N305      1.0  0.12506  0.60339  0.37499  1.0000
  C   C1832     1.0  0.12506  0.59427  0.38712  1.0000
  N   N306      1.0  0.12506  0.59854  0.40157  1.0000
  C   C1833     1.0  0.12506  0.61296  0.40582  1.0000
  N   N307      1.0  0.12506  0.62510  0.39669  1.0000
  C   C1834     1.0  0.12506  0.63724  0.40584  1.0000
  C   C1835     1.0  0.12506  0.63256  0.42035  1.0000
  C   C1836     1.0  0.12506  0.61767  0.42036  1.0000
  N   N308      1.0  0.12506  0.64671  0.37509  1.0000
  C   C1837     1.0  0.12506  0.65585  0.38723  1.0000
  N   N309      1.0  0.12506  0.65164  0.40162  1.0000
  C   C1838     1.0  0.12506  0.67037  0.38255  1.0000
  C   C1839     1.0  0.12506  0.67036  0.36765  1.0000
  C   C1840     1.0  0.12506  0.65583  0.36295  1.0000
  C   C1841     1.0  0.12506  0.60960  0.43327  1.0000
  C   C1842     1.0  0.12506  0.61736  0.44656  1.0000
  C   C1843     1.0  0.12506  0.63280  0.44657  1.0000
  C   C1844     1.0  0.12506  0.64061  0.43329  1.0000
  C   C1845     1.0  0.12506  0.68328  0.35958  1.0000
  C   C1846     1.0  0.12506  0.69657  0.36735  1.0000
  C   C1847     1.0  0.12506  0.69658  0.38279  1.0000
  C   C1848     1.0  0.12506  0.68330  0.39060  1.0000
  N   N310      1.0  0.12506  0.62500  0.35337  1.0000
  C   C1849     1.0  0.12506  0.63713  0.34426  1.0000
  N   N311      1.0  0.12506  0.65157  0.34853  1.0000
  C   C1850     1.0  0.12505  0.63243  0.32972  1.0000
  C   C1851     1.0  0.12505  0.61753  0.32971  1.0000
  C   C1852     1.0  0.12505  0.61284  0.34422  1.0000
  C   C1853     1.0  0.12505  0.60947  0.31677  1.0000
  C   C1854     1.0  0.12505  0.61727  0.30348  1.0000
  C   C1855     1.0  0.12505  0.63273  0.30350  1.0000
  C   C1856     1.0  0.12505  0.64051  0.31681  1.0000
  N   N312      1.0  0.12505  0.59843  0.34843  1.0000
  H   H609      1.0  0.12505  0.56691  0.34812  1.0000
  H   H610      1.0  0.12505  0.56700  0.40182  1.0000
  H   H611      1.0  0.12506  0.59828  0.43310  1.0000
  H   H612      1.0  0.12506  0.65193  0.43314  1.0000
  H   H613      1.0  0.12506  0.68311  0.34827  1.0000
  H   H614      1.0  0.12506  0.68314  0.40191  1.0000
  H   H615      1.0  0.12505  0.59815  0.31691  1.0000
  H   H616      1.0  0.12506  0.65184  0.31699  1.0000
  C   C1857     1.0  0.12505  0.60969  0.29017  1.0000
  C   C1858     1.0  0.12505  0.61738  0.27692  1.0000
  C   C1859     1.0  0.12505  0.63267  0.27694  1.0000
  C   C1860     1.0  0.12505  0.64034  0.29022  1.0000
  C   C1861     1.0  0.12505  0.54017  0.35966  1.0000
  C   C1862     1.0  0.12505  0.52692  0.36735  1.0000
  C   C1863     1.0  0.12505  0.52694  0.38264  1.0000
  C   C1864     1.0  0.12505  0.54022  0.39031  1.0000
  C   C1865     1.0  0.12506  0.60975  0.45986  1.0000
  C   C1866     1.0  0.12506  0.61742  0.47312  1.0000
  C   C1867     1.0  0.12506  0.63270  0.47312  1.0000
  C   C1868     1.0  0.12506  0.64038  0.45986  1.0000
  C   C1869     1.0  0.12506  0.70987  0.35974  1.0000
  C   C1870     1.0  0.12506  0.72312  0.36739  1.0000
  C   C1871     1.0  0.12506  0.72313  0.38266  1.0000
  C   C1872     1.0  0.12506  0.70988  0.39035  1.0000
  H   H617      1.0  0.12505  0.59837  0.29013  1.0000
  O   O305      1.0  0.12505  0.60996  0.26397  1.0000
  O   O306      1.0  0.12505  0.64012  0.26401  1.0000
  H   H618      1.0  0.12505  0.65167  0.29020  1.0000
  H   H619      1.0  0.12505  0.54013  0.34834  1.0000
  O   O307      1.0  0.12505  0.51396  0.35993  1.0000
  O   O308      1.0  0.12505  0.51400  0.39009  1.0000
  H   H620      1.0  0.12505  0.54020  0.40163  1.0000
  H   H621      1.0  0.12506  0.59844  0.45989  1.0000
  O   O309      1.0  0.12506  0.60997  0.48606  1.0000
  O   O310      1.0  0.12506  0.64010  0.48606  1.0000
  H   H622      1.0  0.12506  0.65169  0.45990  1.0000
  H   H623      1.0  0.12506  0.70990  0.34844  1.0000
  O   O311      1.0  0.12506  0.73606  0.35996  1.0000
  O   O312      1.0  0.12506  0.73607  0.39007  1.0000
  H   H624      1.0  0.12506  0.70991  0.40167  1.0000
  Ni  Ni39      1.0  0.12506  0.62505  0.37504  1.0000
  C   C1873     1.0  0.35940  0.12504  0.31674  1.0000
  C   C1874     1.0  0.36720  0.12504  0.30346  1.0000
  C   C1875     1.0  0.38267  0.12503  0.30349  1.0000
  C   C1876     1.0  0.39046  0.12503  0.31680  1.0000
  C   C1877     1.0  0.38238  0.12504  0.32971  1.0000
  C   C1878     1.0  0.36747  0.12504  0.32968  1.0000
  C   C1879     1.0  0.36279  0.12504  0.34420  1.0000
  N   N313      1.0  0.37495  0.12504  0.35337  1.0000
  C   C1880     1.0  0.38709  0.12504  0.34424  1.0000
  N   N314      1.0  0.40153  0.12504  0.34851  1.0000
  C   C1881     1.0  0.40579  0.12504  0.36293  1.0000
  N   N315      1.0  0.39666  0.12504  0.37507  1.0000
  C   C1882     1.0  0.40580  0.12504  0.38722  1.0000
  C   C1883     1.0  0.42032  0.12504  0.38253  1.0000
  C   C1884     1.0  0.42032  0.12504  0.36764  1.0000
  N   N316      1.0  0.37505  0.12504  0.39668  1.0000
  C   C1885     1.0  0.38720  0.12504  0.40582  1.0000
  N   N317      1.0  0.40159  0.12504  0.40161  1.0000
  C   C1886     1.0  0.38251  0.12505  0.42035  1.0000
  C   C1887     1.0  0.36762  0.12505  0.42033  1.0000
  C   C1888     1.0  0.36292  0.12505  0.40581  1.0000
  C   C1889     1.0  0.43324  0.12503  0.35957  1.0000
  C   C1890     1.0  0.44652  0.12503  0.36733  1.0000
  C   C1891     1.0  0.44653  0.12503  0.38278  1.0000
  C   C1892     1.0  0.43325  0.12504  0.39058  1.0000
  C   C1893     1.0  0.35954  0.12505  0.43325  1.0000
  C   C1894     1.0  0.36732  0.12505  0.44655  1.0000
  C   C1895     1.0  0.38276  0.12505  0.44655  1.0000
  C   C1896     1.0  0.39056  0.12505  0.43327  1.0000
  N   N318      1.0  0.35334  0.12504  0.37497  1.0000
  C   C1897     1.0  0.34422  0.12505  0.38711  1.0000
  N   N319      1.0  0.34850  0.12505  0.40154  1.0000
  C   C1898     1.0  0.32968  0.12505  0.38241  1.0000
  C   C1899     1.0  0.32967  0.12505  0.36750  1.0000
  C   C1900     1.0  0.34418  0.12504  0.36282  1.0000
  C   C1901     1.0  0.31673  0.12505  0.35944  1.0000
  C   C1902     1.0  0.30344  0.12505  0.36725  1.0000
  C   C1903     1.0  0.30346  0.12505  0.38270  1.0000
  C   C1904     1.0  0.31677  0.12505  0.39049  1.0000
  N   N320      1.0  0.34839  0.12504  0.34840  1.0000
  H   H625      1.0  0.34808  0.12504  0.31689  1.0000
  H   H626      1.0  0.40179  0.12503  0.31697  1.0000
  H   H627      1.0  0.43307  0.12503  0.34825  1.0000
  H   H628      1.0  0.43310  0.12504  0.40190  1.0000
  H   H629      1.0  0.34823  0.12505  0.43309  1.0000
  H   H630      1.0  0.40188  0.12504  0.43311  1.0000
  H   H631      1.0  0.31687  0.12505  0.34812  1.0000
  H   H632      1.0  0.31695  0.12505  0.40181  1.0000
  C   C1905     1.0  0.29013  0.12505  0.35966  1.0000
  C   C1906     1.0  0.27688  0.12505  0.36736  1.0000
  C   C1907     1.0  0.27690  0.12506  0.38265  1.0000
  C   C1908     1.0  0.29018  0.12505  0.39031  1.0000
  C   C1909     1.0  0.35962  0.12504  0.29014  1.0000
  C   C1910     1.0  0.36731  0.12503  0.27689  1.0000
  C   C1911     1.0  0.38260  0.12503  0.27691  1.0000
  C   C1912     1.0  0.39027  0.12503  0.29019  1.0000
  C   C1913     1.0  0.45982  0.12503  0.35972  1.0000
  C   C1914     1.0  0.47309  0.12503  0.36739  1.0000
  C   C1915     1.0  0.47309  0.12503  0.38267  1.0000
  C   C1916     1.0  0.45983  0.12503  0.39035  1.0000
  C   C1917     1.0  0.35970  0.12505  0.45985  1.0000
  C   C1918     1.0  0.36736  0.12505  0.47310  1.0000
  C   C1919     1.0  0.38263  0.12505  0.47311  1.0000
  C   C1920     1.0  0.39032  0.12505  0.45985  1.0000
  H   H633      1.0  0.29009  0.12505  0.34834  1.0000
  O   O313      1.0  0.26393  0.12506  0.35994  1.0000
  O   O314      1.0  0.26397  0.12506  0.39010  1.0000
  H   H634      1.0  0.29016  0.12506  0.40164  1.0000
  H   H635      1.0  0.34830  0.12504  0.29010  1.0000
  O   O315      1.0  0.35989  0.12503  0.26393  1.0000
  O   O316      1.0  0.39005  0.12503  0.26397  1.0000
  H   H636      1.0  0.40159  0.12503  0.29017  1.0000
  H   H637      1.0  0.45985  0.12503  0.34841  1.0000
  O   O317      1.0  0.48603  0.12503  0.35994  1.0000
  O   O318      1.0  0.48603  0.12503  0.39007  1.0000
  H   H638      1.0  0.45986  0.12503  0.40167  1.0000
  H   H639      1.0  0.34840  0.12505  0.45987  1.0000
  O   O319      1.0  0.35993  0.12506  0.48604  1.0000
  O   O320      1.0  0.39004  0.12505  0.48605  1.0000
  H   H640      1.0  0.40163  0.12505  0.45989  1.0000
  Ni  Ni40      1.0  0.37500  0.12504  0.37502  1.0000
  C   C1921     1.0  0.64060  0.87501  0.68327  1.0000
  C   C1922     1.0  0.63279  0.87501  0.69655  1.0000
  C   C1923     1.0  0.61733  0.87501  0.69652  1.0000
  C   C1924     1.0  0.60954  0.87501  0.68322  1.0000
  C   C1925     1.0  0.61762  0.87501  0.67031  1.0000
  C   C1926     1.0  0.63253  0.87501  0.67033  1.0000
  C   C1927     1.0  0.63721  0.87501  0.65581  1.0000
  N   N321      1.0  0.62505  0.87501  0.64665  1.0000
  C   C1928     1.0  0.61291  0.87501  0.65577  1.0000
  N   N322      1.0  0.59847  0.87502  0.65150  1.0000
  C   C1929     1.0  0.59421  0.87502  0.63708  1.0000
  N   N323      1.0  0.60334  0.87501  0.62494  1.0000
  C   C1930     1.0  0.59419  0.87501  0.61280  1.0000
  C   C1931     1.0  0.57968  0.87502  0.61748  1.0000
  C   C1932     1.0  0.57967  0.87502  0.63237  1.0000
  N   N324      1.0  0.62494  0.87501  0.60333  1.0000
  C   C1933     1.0  0.61280  0.87501  0.59419  1.0000
  N   N325      1.0  0.59841  0.87501  0.59840  1.0000
  C   C1934     1.0  0.61749  0.87501  0.57967  1.0000
  C   C1935     1.0  0.63238  0.87501  0.57968  1.0000
  C   C1936     1.0  0.63708  0.87501  0.59421  1.0000
  C   C1937     1.0  0.56676  0.87502  0.64045  1.0000
  C   C1938     1.0  0.55347  0.87502  0.63268  1.0000
  C   C1939     1.0  0.55346  0.87502  0.61724  1.0000
  C   C1940     1.0  0.56674  0.87502  0.60943  1.0000
  C   C1941     1.0  0.64045  0.87501  0.56676  1.0000
  C   C1942     1.0  0.63268  0.87501  0.55346  1.0000
  C   C1943     1.0  0.61724  0.87501  0.55346  1.0000
  C   C1944     1.0  0.60943  0.87501  0.56674  1.0000
  N   N326      1.0  0.64666  0.87501  0.62504  1.0000
  C   C1945     1.0  0.65577  0.87501  0.61290  1.0000
  N   N327      1.0  0.65150  0.87501  0.59847  1.0000
  C   C1946     1.0  0.67032  0.87501  0.61760  1.0000
  C   C1947     1.0  0.67033  0.87501  0.63251  1.0000
  C   C1948     1.0  0.65581  0.87501  0.63720  1.0000
  C   C1949     1.0  0.68327  0.87501  0.64057  1.0000
  C   C1950     1.0  0.69656  0.87501  0.63277  1.0000
  C   C1951     1.0  0.69653  0.87501  0.61731  1.0000
  C   C1952     1.0  0.68322  0.87501  0.60953  1.0000
  N   N328      1.0  0.65161  0.87501  0.65161  1.0000
  H   H641      1.0  0.65192  0.87501  0.68313  1.0000
  H   H642      1.0  0.59821  0.87502  0.68304  1.0000
  H   H643      1.0  0.56693  0.87502  0.65177  1.0000
  H   H644      1.0  0.56689  0.87502  0.59811  1.0000
  H   H645      1.0  0.65176  0.87501  0.56692  1.0000
  H   H646      1.0  0.59812  0.87501  0.56690  1.0000
  H   H647      1.0  0.68313  0.87501  0.65189  1.0000
  H   H648      1.0  0.68305  0.87501  0.59820  1.0000
  C   C1953     1.0  0.70986  0.87500  0.64035  1.0000
  C   C1954     1.0  0.72312  0.87500  0.63265  1.0000
  C   C1955     1.0  0.72310  0.87500  0.61736  1.0000
  C   C1956     1.0  0.70982  0.87500  0.60970  1.0000
  C   C1957     1.0  0.64038  0.87501  0.70987  1.0000
  C   C1958     1.0  0.63269  0.87501  0.72313  1.0000
  C   C1959     1.0  0.61740  0.87501  0.72310  1.0000
  C   C1960     1.0  0.60973  0.87502  0.70982  1.0000
  C   C1961     1.0  0.54017  0.87502  0.64029  1.0000
  C   C1962     1.0  0.52691  0.87502  0.63263  1.0000
  C   C1963     1.0  0.52691  0.87502  0.61734  1.0000
  C   C1964     1.0  0.54017  0.87502  0.60966  1.0000
  C   C1965     1.0  0.64029  0.87501  0.54017  1.0000
  C   C1966     1.0  0.63264  0.87501  0.52691  1.0000
  C   C1967     1.0  0.61737  0.87501  0.52690  1.0000
  C   C1968     1.0  0.60968  0.87501  0.54016  1.0000
  H   H649      1.0  0.70990  0.87500  0.65167  1.0000
  O   O321      1.0  0.73607  0.87500  0.64007  1.0000
  O   O322      1.0  0.73603  0.87500  0.60991  1.0000
  H   H650      1.0  0.70984  0.87500  0.59837  1.0000
  H   H651      1.0  0.65170  0.87501  0.70991  1.0000
  O   O323      1.0  0.64011  0.87501  0.73608  1.0000
  O   O324      1.0  0.60995  0.87502  0.73604  1.0000
  H   H652      1.0  0.59841  0.87502  0.70985  1.0000
  H   H653      1.0  0.54014  0.87502  0.65160  1.0000
  O   O325      1.0  0.51397  0.87502  0.64007  1.0000
  O   O326      1.0  0.51397  0.87502  0.60995  1.0000
  H   H654      1.0  0.54013  0.87502  0.59835  1.0000
  H   H655      1.0  0.65159  0.87501  0.54014  1.0000
  O   O327      1.0  0.64007  0.87501  0.51397  1.0000
  O   O328      1.0  0.60996  0.87501  0.51397  1.0000
  H   H656      1.0  0.59836  0.87501  0.54012  1.0000
  Ni  Ni41      1.0  0.62500  0.87501  0.62499  1.0000
  C   C1969     1.0  0.60941  0.12497  0.31675  1.0000
  C   C1970     1.0  0.61721  0.12497  0.30347  1.0000
  C   C1971     1.0  0.63268  0.12497  0.30350  1.0000
  C   C1972     1.0  0.64047  0.12497  0.31681  1.0000
  C   C1973     1.0  0.63239  0.12497  0.32971  1.0000
  C   C1974     1.0  0.61748  0.12497  0.32969  1.0000
  C   C1975     1.0  0.61280  0.12497  0.34421  1.0000
  N   N329      1.0  0.62496  0.12497  0.35337  1.0000
  C   C1976     1.0  0.63709  0.12497  0.34425  1.0000
  N   N330      1.0  0.65154  0.12497  0.34852  1.0000
  C   C1977     1.0  0.65579  0.12497  0.36294  1.0000
  N   N331      1.0  0.64667  0.12497  0.37508  1.0000
  C   C1978     1.0  0.65581  0.12497  0.38723  1.0000
  C   C1979     1.0  0.67033  0.12497  0.38254  1.0000
  C   C1980     1.0  0.67033  0.12496  0.36765  1.0000
  N   N332      1.0  0.62506  0.12497  0.39669  1.0000
  C   C1981     1.0  0.63720  0.12497  0.40583  1.0000
  N   N333      1.0  0.65159  0.12497  0.40162  1.0000
  C   C1982     1.0  0.63252  0.12497  0.42035  1.0000
  C   C1983     1.0  0.61762  0.12497  0.42034  1.0000
  C   C1984     1.0  0.61292  0.12497  0.40581  1.0000
  C   C1985     1.0  0.68324  0.12496  0.35958  1.0000
  C   C1986     1.0  0.69653  0.12496  0.36734  1.0000
  C   C1987     1.0  0.69654  0.12496  0.38279  1.0000
  C   C1988     1.0  0.68326  0.12496  0.39059  1.0000
  C   C1989     1.0  0.60955  0.12497  0.43326  1.0000
  C   C1990     1.0  0.61732  0.12497  0.44656  1.0000
  C   C1991     1.0  0.63277  0.12497  0.44656  1.0000
  C   C1992     1.0  0.64057  0.12497  0.43328  1.0000
  N   N334      1.0  0.60334  0.12497  0.37498  1.0000
  C   C1993     1.0  0.59423  0.12497  0.38711  1.0000
  N   N335      1.0  0.59850  0.12497  0.40155  1.0000
  C   C1994     1.0  0.57969  0.12497  0.38242  1.0000
  C   C1995     1.0  0.57967  0.12497  0.36751  1.0000
  C   C1996     1.0  0.59419  0.12497  0.36282  1.0000
  C   C1997     1.0  0.56673  0.12497  0.35945  1.0000
  C   C1998     1.0  0.55345  0.12497  0.36725  1.0000
  C   C1999     1.0  0.55347  0.12497  0.38271  1.0000
  C   C2000     1.0  0.56678  0.12497  0.39049  1.0000
  N   N336      1.0  0.59840  0.12497  0.34841  1.0000
  H   H657      1.0  0.59809  0.12497  0.31689  1.0000
  H   H658      1.0  0.65180  0.12497  0.31698  1.0000
  H   H659      1.0  0.68308  0.12496  0.34826  1.0000
  H   H660      1.0  0.68311  0.12496  0.40191  1.0000
  H   H661      1.0  0.59824  0.12497  0.43310  1.0000
  H   H662      1.0  0.65188  0.12497  0.43312  1.0000
  H   H663      1.0  0.56688  0.12497  0.34813  1.0000
  H   H664      1.0  0.56696  0.12497  0.40182  1.0000
  C   C2001     1.0  0.54014  0.12497  0.35967  1.0000
  C   C2002     1.0  0.52689  0.12498  0.36737  1.0000
  C   C2003     1.0  0.52691  0.12498  0.38265  1.0000
  C   C2004     1.0  0.54019  0.12498  0.39032  1.0000
  C   C2005     1.0  0.60963  0.12497  0.29015  1.0000
  C   C2006     1.0  0.61732  0.12497  0.27689  1.0000
  C   C2007     1.0  0.63261  0.12497  0.27692  1.0000
  C   C2008     1.0  0.64028  0.12497  0.29020  1.0000
  C   C2009     1.0  0.70983  0.12496  0.35973  1.0000
  C   C2010     1.0  0.72309  0.12496  0.36740  1.0000
  C   C2011     1.0  0.72309  0.12496  0.38268  1.0000
  C   C2012     1.0  0.70984  0.12496  0.39037  1.0000
  C   C2013     1.0  0.60971  0.12497  0.45985  1.0000
  C   C2014     1.0  0.61736  0.12497  0.47311  1.0000
  C   C2015     1.0  0.63263  0.12497  0.47312  1.0000
  C   C2016     1.0  0.64032  0.12497  0.45986  1.0000
  H   H665      1.0  0.54010  0.12497  0.34835  1.0000
  O   O329      1.0  0.51394  0.12498  0.35994  1.0000
  O   O330      1.0  0.51398  0.12498  0.39010  1.0000
  H   H666      1.0  0.54016  0.12498  0.40165  1.0000
  H   H667      1.0  0.59831  0.12497  0.29011  1.0000
  O   O331      1.0  0.60990  0.12497  0.26394  1.0000
  O   O332      1.0  0.64006  0.12497  0.26398  1.0000
  H   H668      1.0  0.65160  0.12496  0.29018  1.0000
  H   H669      1.0  0.70986  0.12496  0.34842  1.0000
  O   O333      1.0  0.73603  0.12496  0.35996  1.0000
  O   O334      1.0  0.73603  0.12496  0.39008  1.0000
  H   H670      1.0  0.70987  0.12496  0.40168  1.0000
  H   H671      1.0  0.59841  0.12497  0.45988  1.0000
  O   O335      1.0  0.60993  0.12497  0.48605  1.0000
  O   O336      1.0  0.64004  0.12497  0.48606  1.0000
  H   H672      1.0  0.65164  0.12497  0.45990  1.0000
  Ni  Ni42      1.0  0.62501  0.12497  0.37503  1.0000
  C   C2017     1.0  0.87503  0.68325  0.39058  1.0000
  C   C2018     1.0  0.87503  0.69653  0.38278  1.0000
  C   C2019     1.0  0.87503  0.69650  0.36732  1.0000
  C   C2020     1.0  0.87503  0.68320  0.35952  1.0000
  C   C2021     1.0  0.87503  0.67029  0.36760  1.0000
  C   C2022     1.0  0.87503  0.67031  0.38251  1.0000
  C   C2023     1.0  0.87503  0.65580  0.38719  1.0000
  N   N337      1.0  0.87503  0.64663  0.37503  1.0000
  C   C2024     1.0  0.87503  0.65575  0.36290  1.0000
  N   N338      1.0  0.87503  0.65148  0.34845  1.0000
  C   C2025     1.0  0.87503  0.63706  0.34420  1.0000
  N   N339      1.0  0.87503  0.62493  0.35333  1.0000
  C   C2026     1.0  0.87503  0.61278  0.34418  1.0000
  C   C2027     1.0  0.87503  0.61746  0.32967  1.0000
  C   C2028     1.0  0.87503  0.63236  0.32966  1.0000
  N   N340      1.0  0.87502  0.60332  0.37493  1.0000
  C   C2029     1.0  0.87502  0.59418  0.36279  1.0000
  N   N341      1.0  0.87502  0.59838  0.34840  1.0000
  C   C2030     1.0  0.87502  0.57965  0.36748  1.0000
  C   C2031     1.0  0.87502  0.57966  0.38237  1.0000
  C   C2032     1.0  0.87502  0.59419  0.38707  1.0000
  C   C2033     1.0  0.87503  0.64043  0.31675  1.0000
  C   C2034     1.0  0.87503  0.63266  0.30346  1.0000
  C   C2035     1.0  0.87502  0.61722  0.30345  1.0000
  C   C2036     1.0  0.87502  0.60941  0.31673  1.0000
  C   C2037     1.0  0.87502  0.56675  0.39044  1.0000
  C   C2038     1.0  0.87502  0.55345  0.38267  1.0000
  C   C2039     1.0  0.87502  0.55345  0.36723  1.0000
  C   C2040     1.0  0.87502  0.56673  0.35942  1.0000
  N   N342      1.0  0.87503  0.62503  0.39665  1.0000
  C   C2041     1.0  0.87503  0.61289  0.40576  1.0000
  N   N343      1.0  0.87502  0.59846  0.40149  1.0000
  C   C2042     1.0  0.87503  0.61759  0.42030  1.0000
  C   C2043     1.0  0.87503  0.63249  0.42031  1.0000
  C   C2044     1.0  0.87503  0.63718  0.40580  1.0000
  C   C2045     1.0  0.87503  0.64055  0.43326  1.0000
  C   C2046     1.0  0.87503  0.63275  0.44654  1.0000
  C   C2047     1.0  0.87503  0.61730  0.44652  1.0000
  C   C2048     1.0  0.87503  0.60951  0.43321  1.0000
  N   N344      1.0  0.87503  0.65160  0.40159  1.0000
  H   H673      1.0  0.87503  0.68311  0.40190  1.0000
  H   H674      1.0  0.87503  0.68302  0.34820  1.0000
  H   H675      1.0  0.87503  0.65175  0.31692  1.0000
  H   H676      1.0  0.87502  0.59810  0.31688  1.0000
  H   H677      1.0  0.87502  0.56691  0.40175  1.0000
  H   H678      1.0  0.87502  0.56688  0.34811  1.0000
  H   H679      1.0  0.87503  0.65187  0.43311  1.0000
  H   H680      1.0  0.87503  0.59819  0.43303  1.0000
  C   C2049     1.0  0.87503  0.64034  0.45985  1.0000
  C   C2050     1.0  0.87503  0.63264  0.47310  1.0000
  C   C2051     1.0  0.87503  0.61735  0.47308  1.0000
  C   C2052     1.0  0.87503  0.60969  0.45980  1.0000
  C   C2053     1.0  0.87504  0.70985  0.39036  1.0000
  C   C2054     1.0  0.87504  0.72311  0.38267  1.0000
  C   C2055     1.0  0.87504  0.72308  0.36738  1.0000
  C   C2056     1.0  0.87504  0.70980  0.35971  1.0000
  C   C2057     1.0  0.87503  0.64027  0.29016  1.0000
  C   C2058     1.0  0.87503  0.63261  0.27690  1.0000
  C   C2059     1.0  0.87502  0.61733  0.27690  1.0000
  C   C2060     1.0  0.87502  0.60964  0.29016  1.0000
  C   C2061     1.0  0.87502  0.54015  0.39028  1.0000
  C   C2062     1.0  0.87502  0.52690  0.38263  1.0000
  C   C2063     1.0  0.87502  0.52689  0.36736  1.0000
  C   C2064     1.0  0.87502  0.54014  0.35967  1.0000
  H   H681      1.0  0.87503  0.65166  0.45989  1.0000
  O   O337      1.0  0.87503  0.64006  0.48605  1.0000
  O   O338      1.0  0.87503  0.60990  0.48601  1.0000
  H   H682      1.0  0.87503  0.59836  0.45982  1.0000
  H   H683      1.0  0.87504  0.70990  0.40168  1.0000
  O   O339      1.0  0.87504  0.73606  0.39009  1.0000
  O   O340      1.0  0.87504  0.73602  0.35993  1.0000
  H   H684      1.0  0.87504  0.70983  0.34839  1.0000
  H   H685      1.0  0.87503  0.65158  0.29013  1.0000
  O   O341      1.0  0.87503  0.64005  0.26396  1.0000
  O   O342      1.0  0.87502  0.60993  0.26396  1.0000
  H   H686      1.0  0.87502  0.59833  0.29012  1.0000
  H   H687      1.0  0.87502  0.54013  0.40158  1.0000
  O   O343      1.0  0.87502  0.51396  0.39006  1.0000
  O   O344      1.0  0.87502  0.51395  0.35995  1.0000
  H   H688      1.0  0.87502  0.54011  0.34835  1.0000
  Ni  Ni43      1.0  0.87503  0.62498  0.37498  1.0000
  C   C2065     1.0  0.39060  0.87507  0.43327  1.0000
  C   C2066     1.0  0.38280  0.87507  0.44655  1.0000
  C   C2067     1.0  0.36734  0.87507  0.44652  1.0000
  C   C2068     1.0  0.35955  0.87507  0.43321  1.0000
  C   C2069     1.0  0.36763  0.87507  0.42031  1.0000
  C   C2070     1.0  0.38254  0.87507  0.42033  1.0000
  C   C2071     1.0  0.38722  0.87507  0.40581  1.0000
  N   N345      1.0  0.37506  0.87507  0.39665  1.0000
  C   C2072     1.0  0.36292  0.87507  0.40577  1.0000
  N   N346      1.0  0.34848  0.87507  0.40150  1.0000
  C   C2073     1.0  0.34422  0.87507  0.38708  1.0000
  N   N347      1.0  0.35335  0.87507  0.37494  1.0000
  C   C2074     1.0  0.34421  0.87507  0.36279  1.0000
  C   C2075     1.0  0.32969  0.87507  0.36748  1.0000
  C   C2076     1.0  0.32969  0.87507  0.38237  1.0000
  N   N348      1.0  0.37496  0.87507  0.35333  1.0000
  C   C2077     1.0  0.36282  0.87507  0.34419  1.0000
  N   N349      1.0  0.34842  0.87507  0.34840  1.0000
  C   C2078     1.0  0.36750  0.87507  0.32967  1.0000
  C   C2079     1.0  0.38240  0.87507  0.32968  1.0000
  C   C2080     1.0  0.38710  0.87507  0.34421  1.0000
  C   C2081     1.0  0.31677  0.87507  0.39044  1.0000
  C   C2082     1.0  0.30349  0.87508  0.38268  1.0000
  C   C2083     1.0  0.30348  0.87508  0.36723  1.0000
  C   C2084     1.0  0.31676  0.87507  0.35942  1.0000
  C   C2085     1.0  0.39047  0.87506  0.31676  1.0000
  C   C2086     1.0  0.38270  0.87506  0.30346  1.0000
  C   C2087     1.0  0.36725  0.87507  0.30346  1.0000
  C   C2088     1.0  0.35945  0.87507  0.31674  1.0000
  N   N350      1.0  0.39667  0.87507  0.37504  1.0000
  C   C2089     1.0  0.40579  0.87506  0.36291  1.0000
  N   N351      1.0  0.40152  0.87506  0.34847  1.0000
  C   C2090     1.0  0.42033  0.87506  0.36761  1.0000
  C   C2091     1.0  0.42034  0.87506  0.38251  1.0000
  C   C2092     1.0  0.40583  0.87506  0.38720  1.0000
  C   C2093     1.0  0.43328  0.87506  0.39057  1.0000
  C   C2094     1.0  0.44657  0.87506  0.38277  1.0000
  C   C2095     1.0  0.44655  0.87506  0.36732  1.0000
  C   C2096     1.0  0.43324  0.87506  0.35953  1.0000
  N   N352      1.0  0.40162  0.87507  0.40161  1.0000
  H   H689      1.0  0.40192  0.87507  0.43313  1.0000
  H   H690      1.0  0.34822  0.87507  0.43304  1.0000
  H   H691      1.0  0.31694  0.87507  0.40176  1.0000
  H   H692      1.0  0.31691  0.87507  0.34811  1.0000
  H   H693      1.0  0.40178  0.87506  0.31693  1.0000
  H   H694      1.0  0.34813  0.87507  0.31690  1.0000
  H   H695      1.0  0.43314  0.87506  0.40189  1.0000
  H   H696      1.0  0.43306  0.87506  0.34820  1.0000
  C   C2097     1.0  0.45987  0.87506  0.39036  1.0000
  C   C2098     1.0  0.47313  0.87506  0.38266  1.0000
  C   C2099     1.0  0.47311  0.87506  0.36737  1.0000
  C   C2100     1.0  0.45983  0.87506  0.35971  1.0000
  C   C2101     1.0  0.39038  0.87507  0.45987  1.0000
  C   C2102     1.0  0.38269  0.87507  0.47313  1.0000
  C   C2103     1.0  0.36740  0.87507  0.47310  1.0000
  C   C2104     1.0  0.35973  0.87507  0.45982  1.0000
  C   C2105     1.0  0.29019  0.87508  0.39029  1.0000
  C   C2106     1.0  0.27692  0.87508  0.38262  1.0000
  C   C2107     1.0  0.27692  0.87508  0.36733  1.0000
  C   C2108     1.0  0.29018  0.87508  0.35965  1.0000
  C   C2109     1.0  0.39031  0.87506  0.29017  1.0000
  C   C2110     1.0  0.38266  0.87506  0.27691  1.0000
  C   C2111     1.0  0.36739  0.87506  0.27690  1.0000
  C   C2112     1.0  0.35970  0.87507  0.29016  1.0000
  H   H697      1.0  0.45991  0.87506  0.40168  1.0000
  O   O345      1.0  0.48608  0.87506  0.39008  1.0000
  O   O346      1.0  0.48604  0.87505  0.35992  1.0000
  H   H698      1.0  0.45985  0.87506  0.34838  1.0000
  H   H699      1.0  0.40170  0.87507  0.45992  1.0000
  O   O347      1.0  0.39011  0.87507  0.48608  1.0000
  O   O348      1.0  0.35995  0.87507  0.48604  1.0000
  H   H700      1.0  0.34841  0.87507  0.45984  1.0000
  H   H701      1.0  0.29015  0.87508  0.40160  1.0000
  O   O349      1.0  0.26398  0.87508  0.39006  1.0000
  O   O350      1.0  0.26398  0.87508  0.35993  1.0000
  H   H702      1.0  0.29015  0.87508  0.34834  1.0000
  H   H703      1.0  0.40161  0.87506  0.29014  1.0000
  O   O351      1.0  0.39009  0.87506  0.26397  1.0000
  O   O352      1.0  0.35998  0.87507  0.26396  1.0000
  H   H704      1.0  0.34838  0.87507  0.29012  1.0000
  Ni  Ni44      1.0  0.37501  0.87507  0.37499  1.0000
  C   C2113     1.0  0.12500  0.43329  0.39060  1.0000
  C   C2114     1.0  0.12500  0.44657  0.38280  1.0000
  C   C2115     1.0  0.12500  0.44654  0.36734  1.0000
  C   C2116     1.0  0.12500  0.43324  0.35955  1.0000
  C   C2117     1.0  0.12500  0.42033  0.36763  1.0000
  C   C2118     1.0  0.12500  0.42036  0.38254  1.0000
  C   C2119     1.0  0.12500  0.40584  0.38721  1.0000
  N   N353      1.0  0.12500  0.39667  0.37506  1.0000
  C   C2120     1.0  0.12500  0.40580  0.36292  1.0000
  N   N354      1.0  0.12500  0.40153  0.34848  1.0000
  C   C2121     1.0  0.12500  0.38711  0.34422  1.0000
  N   N355      1.0  0.12499  0.37497  0.35335  1.0000
  C   C2122     1.0  0.12499  0.36282  0.34420  1.0000
  C   C2123     1.0  0.12499  0.36751  0.32969  1.0000
  C   C2124     1.0  0.12500  0.38240  0.32969  1.0000
  N   N356      1.0  0.12499  0.35336  0.37495  1.0000
  C   C2125     1.0  0.12499  0.34422  0.36281  1.0000
  N   N357      1.0  0.12499  0.34843  0.34842  1.0000
  C   C2126     1.0  0.12499  0.32970  0.36750  1.0000
  C   C2127     1.0  0.12499  0.32971  0.38239  1.0000
  C   C2128     1.0  0.12499  0.34424  0.38709  1.0000
  C   C2129     1.0  0.12500  0.39047  0.31677  1.0000
  C   C2130     1.0  0.12500  0.38271  0.30349  1.0000
  C   C2131     1.0  0.12499  0.36726  0.30348  1.0000
  C   C2132     1.0  0.12499  0.35945  0.31676  1.0000
  C   C2133     1.0  0.12499  0.31679  0.39047  1.0000
  C   C2134     1.0  0.12499  0.30349  0.38269  1.0000
  C   C2135     1.0  0.12499  0.30349  0.36725  1.0000
  C   C2136     1.0  0.12499  0.31677  0.35945  1.0000
  N   N358      1.0  0.12499  0.37507  0.39667  1.0000
  C   C2137     1.0  0.12499  0.36293  0.40578  1.0000
  N   N359      1.0  0.12499  0.34850  0.40151  1.0000
  C   C2138     1.0  0.12499  0.36763  0.42033  1.0000
  C   C2139     1.0  0.12499  0.38254  0.42034  1.0000
  C   C2140     1.0  0.12500  0.38722  0.40582  1.0000
  C   C2141     1.0  0.12500  0.39060  0.43328  1.0000
  C   C2142     1.0  0.12499  0.38280  0.44656  1.0000
  C   C2143     1.0  0.12499  0.36734  0.44654  1.0000
  C   C2144     1.0  0.12499  0.35956  0.43323  1.0000
  N   N360      1.0  0.12500  0.40164  0.40161  1.0000
  H   H705      1.0  0.12500  0.43315  0.40192  1.0000
  H   H706      1.0  0.12500  0.43307  0.34822  1.0000
  H   H707      1.0  0.12500  0.40179  0.31694  1.0000
  H   H708      1.0  0.12499  0.34814  0.31691  1.0000
  H   H709      1.0  0.12499  0.31696  0.40178  1.0000
  H   H710      1.0  0.12499  0.31693  0.34813  1.0000
  H   H711      1.0  0.12500  0.40192  0.43313  1.0000
  H   H712      1.0  0.12499  0.34823  0.43306  1.0000
  C   C2145     1.0  0.12499  0.39038  0.45987  1.0000
  C   C2146     1.0  0.12499  0.38268  0.47312  1.0000
  C   C2147     1.0  0.12499  0.36740  0.47310  1.0000
  C   C2148     1.0  0.12499  0.35973  0.45983  1.0000
  C   C2149     1.0  0.12500  0.45990  0.39038  1.0000
  C   C2150     1.0  0.12501  0.47315  0.38269  1.0000
  C   C2151     1.0  0.12501  0.47313  0.36740  1.0000
  C   C2152     1.0  0.12500  0.45985  0.35973  1.0000
  C   C2153     1.0  0.12500  0.39032  0.29019  1.0000
  C   C2154     1.0  0.12500  0.38265  0.27692  1.0000
  C   C2155     1.0  0.12499  0.36737  0.27692  1.0000
  C   C2156     1.0  0.12499  0.35968  0.29018  1.0000
  C   C2157     1.0  0.12498  0.29020  0.39031  1.0000
  C   C2158     1.0  0.12498  0.27694  0.38265  1.0000
  C   C2159     1.0  0.12498  0.27693  0.36738  1.0000
  C   C2160     1.0  0.12498  0.29019  0.35969  1.0000
  H   H713      1.0  0.12500  0.40170  0.45991  1.0000
  O   O353      1.0  0.12499  0.39010  0.48607  1.0000
  O   O354      1.0  0.12499  0.35995  0.48604  1.0000
  H   H714      1.0  0.12499  0.34840  0.45985  1.0000
  H   H715      1.0  0.12500  0.45994  0.40170  1.0000
  O   O355      1.0  0.12501  0.48611  0.39011  1.0000
  O   O356      1.0  0.12501  0.48606  0.35995  1.0000
  H   H716      1.0  0.12500  0.45987  0.34841  1.0000
  H   H717      1.0  0.12500  0.40163  0.29016  1.0000
  O   O357      1.0  0.12500  0.39009  0.26398  1.0000
  O   O358      1.0  0.12499  0.35997  0.26399  1.0000
  H   H718      1.0  0.12499  0.34837  0.29015  1.0000
  H   H719      1.0  0.12498  0.29017  0.40161  1.0000
  O   O359      1.0  0.12498  0.26400  0.39009  1.0000
  O   O360      1.0  0.12498  0.26400  0.35997  1.0000
  H   H720      1.0  0.12498  0.29015  0.34838  1.0000
  Ni  Ni45      1.0  0.12499  0.37502  0.37501  1.0000
  C   C2161     1.0  0.35940  0.12508  0.56675  1.0000
  C   C2162     1.0  0.36720  0.12508  0.55347  1.0000
  C   C2163     1.0  0.38267  0.12508  0.55350  1.0000
  C   C2164     1.0  0.39046  0.12508  0.56680  1.0000
  C   C2165     1.0  0.38238  0.12508  0.57971  1.0000
  C   C2166     1.0  0.36747  0.12508  0.57969  1.0000
  C   C2167     1.0  0.36279  0.12508  0.59421  1.0000
  N   N361      1.0  0.37495  0.12508  0.60337  1.0000
  C   C2168     1.0  0.38708  0.12508  0.59425  1.0000
  N   N362      1.0  0.40153  0.12508  0.59852  1.0000
  C   C2169     1.0  0.40578  0.12508  0.61294  1.0000
  N   N363      1.0  0.39666  0.12508  0.62508  1.0000
  C   C2170     1.0  0.40580  0.12508  0.63723  1.0000
  C   C2171     1.0  0.42032  0.12507  0.63254  1.0000
  C   C2172     1.0  0.42032  0.12508  0.61765  1.0000
  N   N364      1.0  0.37505  0.12508  0.64669  1.0000
  C   C2173     1.0  0.38719  0.12508  0.65583  1.0000
  N   N365      1.0  0.40158  0.12508  0.65162  1.0000
  C   C2174     1.0  0.38250  0.12508  0.67035  1.0000
  C   C2175     1.0  0.36761  0.12508  0.67034  1.0000
  C   C2176     1.0  0.36291  0.12508  0.65581  1.0000
  C   C2177     1.0  0.43323  0.12507  0.60958  1.0000
  C   C2178     1.0  0.44652  0.12507  0.61734  1.0000
  C   C2179     1.0  0.44653  0.12507  0.63279  1.0000
  C   C2180     1.0  0.43325  0.12507  0.64059  1.0000
  C   C2181     1.0  0.35954  0.12508  0.68326  1.0000
  C   C2182     1.0  0.36731  0.12508  0.69656  1.0000
  C   C2183     1.0  0.38275  0.12508  0.69656  1.0000
  C   C2184     1.0  0.39056  0.12508  0.68328  1.0000
  N   N366      1.0  0.35333  0.12508  0.62498  1.0000
  C   C2185     1.0  0.34422  0.12508  0.63711  1.0000
  N   N367      1.0  0.34849  0.12508  0.65155  1.0000
  C   C2186     1.0  0.32968  0.12508  0.63241  1.0000
  C   C2187     1.0  0.32966  0.12508  0.61751  1.0000
  C   C2188     1.0  0.34418  0.12508  0.61282  1.0000
  C   C2189     1.0  0.31672  0.12508  0.60945  1.0000
  C   C2190     1.0  0.30344  0.12508  0.61725  1.0000
  C   C2191     1.0  0.30346  0.12508  0.63271  1.0000
  C   C2192     1.0  0.31677  0.12508  0.64049  1.0000
  N   N368      1.0  0.34839  0.12508  0.59841  1.0000
  H   H721      1.0  0.34808  0.12508  0.56689  1.0000
  H   H722      1.0  0.40179  0.12508  0.56698  1.0000
  H   H723      1.0  0.43307  0.12507  0.59826  1.0000
  H   H724      1.0  0.43310  0.12507  0.65191  1.0000
  H   H725      1.0  0.34823  0.12508  0.68309  1.0000
  H   H726      1.0  0.40187  0.12508  0.68312  1.0000
  H   H727      1.0  0.31687  0.12508  0.59813  1.0000
  H   H728      1.0  0.31695  0.12508  0.65182  1.0000
  C   C2193     1.0  0.29013  0.12508  0.60966  1.0000
  C   C2194     1.0  0.27688  0.12508  0.61736  1.0000
  C   C2195     1.0  0.27690  0.12508  0.63265  1.0000
  C   C2196     1.0  0.29017  0.12508  0.64032  1.0000
  C   C2197     1.0  0.35962  0.12508  0.54015  1.0000
  C   C2198     1.0  0.36731  0.12508  0.52689  1.0000
  C   C2199     1.0  0.38260  0.12508  0.52692  1.0000
  C   C2200     1.0  0.39027  0.12508  0.54020  1.0000
  C   C2201     1.0  0.45982  0.12507  0.60973  1.0000
  C   C2202     1.0  0.47308  0.12507  0.61740  1.0000
  C   C2203     1.0  0.47308  0.12507  0.63268  1.0000
  C   C2204     1.0  0.45983  0.12507  0.64037  1.0000
  C   C2205     1.0  0.35970  0.12508  0.70985  1.0000
  C   C2206     1.0  0.36735  0.12508  0.72311  1.0000
  C   C2207     1.0  0.38262  0.12508  0.72312  1.0000
  C   C2208     1.0  0.39031  0.12508  0.70986  1.0000
  H   H729      1.0  0.29009  0.12508  0.59835  1.0000
  O   O361      1.0  0.26393  0.12508  0.60994  1.0000
  O   O362      1.0  0.26396  0.12508  0.64010  1.0000
  H   H730      1.0  0.29015  0.12508  0.65165  1.0000
  H   H731      1.0  0.34830  0.12508  0.54011  1.0000
  O   O363      1.0  0.35990  0.12508  0.51394  1.0000
  O   O364      1.0  0.39005  0.12508  0.51398  1.0000
  H   H732      1.0  0.40159  0.12508  0.54018  1.0000
  H   H733      1.0  0.45985  0.12507  0.59842  1.0000
  O   O365      1.0  0.48602  0.12507  0.60996  1.0000
  O   O366      1.0  0.48602  0.12507  0.64008  1.0000
  H   H734      1.0  0.45986  0.12507  0.65168  1.0000
  H   H735      1.0  0.34840  0.12508  0.70988  1.0000
  O   O367      1.0  0.35992  0.12508  0.73605  1.0000
  O   O368      1.0  0.39003  0.12507  0.73605  1.0000
  H   H736      1.0  0.40163  0.12507  0.70990  1.0000
  Ni  Ni46      1.0  0.37500  0.12508  0.62503  1.0000
  C   C2209     1.0  0.87497  0.31674  0.60943  1.0000
  C   C2210     1.0  0.87497  0.30346  0.61723  1.0000
  C   C2211     1.0  0.87497  0.30349  0.63269  1.0000
  C   C2212     1.0  0.87497  0.31680  0.64048  1.0000
  C   C2213     1.0  0.87497  0.32970  0.63240  1.0000
  C   C2214     1.0  0.87497  0.32968  0.61749  1.0000
  C   C2215     1.0  0.87497  0.34420  0.61281  1.0000
  N   N369      1.0  0.87497  0.35336  0.62497  1.0000
  C   C2216     1.0  0.87497  0.34424  0.63711  1.0000
  N   N370      1.0  0.87497  0.34851  0.65155  1.0000
  C   C2217     1.0  0.87497  0.36293  0.65581  1.0000
  N   N371      1.0  0.87498  0.37507  0.64668  1.0000
  C   C2218     1.0  0.87498  0.38722  0.65582  1.0000
  C   C2219     1.0  0.87498  0.38253  0.67034  1.0000
  C   C2220     1.0  0.87498  0.36764  0.67034  1.0000
  N   N372      1.0  0.87498  0.39668  0.62507  1.0000
  C   C2221     1.0  0.87498  0.40582  0.63721  1.0000
  N   N373      1.0  0.87498  0.40161  0.65161  1.0000
  C   C2222     1.0  0.87498  0.42034  0.63253  1.0000
  C   C2223     1.0  0.87498  0.42033  0.61764  1.0000
  C   C2224     1.0  0.87498  0.40580  0.61294  1.0000
  C   C2225     1.0  0.87497  0.35957  0.68326  1.0000
  C   C2226     1.0  0.87498  0.36733  0.69654  1.0000
  C   C2227     1.0  0.87498  0.38278  0.69655  1.0000
  C   C2228     1.0  0.87498  0.39058  0.68327  1.0000
  C   C2229     1.0  0.87498  0.43325  0.60956  1.0000
  C   C2230     1.0  0.87498  0.44654  0.61733  1.0000
  C   C2231     1.0  0.87498  0.44655  0.63278  1.0000
  C   C2232     1.0  0.87498  0.43327  0.64058  1.0000
  N   N374      1.0  0.87498  0.37497  0.60336  1.0000
  C   C2233     1.0  0.87498  0.38710  0.59425  1.0000
  N   N375      1.0  0.87498  0.40154  0.59852  1.0000
  C   C2234     1.0  0.87498  0.38240  0.57970  1.0000
  C   C2235     1.0  0.87497  0.36750  0.57969  1.0000
  C   C2236     1.0  0.87497  0.36281  0.59421  1.0000
  C   C2237     1.0  0.87497  0.35944  0.56675  1.0000
  C   C2238     1.0  0.87497  0.36724  0.55346  1.0000
  C   C2239     1.0  0.87498  0.38270  0.55349  1.0000
  C   C2240     1.0  0.87498  0.39048  0.56680  1.0000
  N   N376      1.0  0.87497  0.34840  0.59841  1.0000
  H   H737      1.0  0.87497  0.31688  0.59811  1.0000
  H   H738      1.0  0.87497  0.31697  0.65181  1.0000
  H   H739      1.0  0.87497  0.34825  0.68309  1.0000
  H   H740      1.0  0.87498  0.40190  0.68312  1.0000
  H   H741      1.0  0.87498  0.43308  0.59825  1.0000
  H   H742      1.0  0.87498  0.43311  0.65190  1.0000
  H   H743      1.0  0.87497  0.34812  0.56689  1.0000
  H   H744      1.0  0.87498  0.40181  0.56697  1.0000
  C   C2241     1.0  0.87497  0.35965  0.54016  1.0000
  C   C2242     1.0  0.87497  0.36735  0.52690  1.0000
  C   C2243     1.0  0.87498  0.38264  0.52693  1.0000
  C   C2244     1.0  0.87498  0.39031  0.54020  1.0000
  C   C2245     1.0  0.87497  0.29014  0.60965  1.0000
  C   C2246     1.0  0.87497  0.27689  0.61734  1.0000
  C   C2247     1.0  0.87497  0.27691  0.63263  1.0000
  C   C2248     1.0  0.87497  0.29019  0.64029  1.0000
  C   C2249     1.0  0.87497  0.35972  0.70984  1.0000
  C   C2250     1.0  0.87498  0.36739  0.72310  1.0000
  C   C2251     1.0  0.87498  0.38267  0.72310  1.0000
  C   C2252     1.0  0.87498  0.39036  0.70985  1.0000
  C   C2253     1.0  0.87498  0.45984  0.60972  1.0000
  C   C2254     1.0  0.87498  0.47309  0.61737  1.0000
  C   C2255     1.0  0.87498  0.47310  0.63264  1.0000
  C   C2256     1.0  0.87498  0.45985  0.64034  1.0000
  H   H745      1.0  0.87497  0.34834  0.54012  1.0000
  O   O369      1.0  0.87497  0.35993  0.51396  1.0000
  O   O370      1.0  0.87498  0.39009  0.51399  1.0000
  H   H746      1.0  0.87498  0.40164  0.54018  1.0000
  H   H747      1.0  0.87497  0.29010  0.59833  1.0000
  O   O371      1.0  0.87497  0.26393  0.60992  1.0000
  O   O372      1.0  0.87497  0.26397  0.64008  1.0000
  H   H748      1.0  0.87497  0.29017  0.65162  1.0000
  H   H749      1.0  0.87497  0.34841  0.70987  1.0000
  O   O373      1.0  0.87497  0.35995  0.73605  1.0000
  O   O374      1.0  0.87498  0.39007  0.73604  1.0000
  H   H750      1.0  0.87498  0.40167  0.70988  1.0000
  H   H751      1.0  0.87498  0.45987  0.59842  1.0000
  O   O375      1.0  0.87498  0.48603  0.60994  1.0000
  O   O376      1.0  0.87498  0.48604  0.64005  1.0000
  H   H752      1.0  0.87498  0.45989  0.65165  1.0000
  Ni  Ni47      1.0  0.87498  0.37502  0.62502  1.0000
  C   C2257     1.0  0.12505  0.68330  0.64059  1.0000
  C   C2258     1.0  0.12505  0.69657  0.63279  1.0000
  C   C2259     1.0  0.12505  0.69655  0.61733  1.0000
  C   C2260     1.0  0.12505  0.68324  0.60953  1.0000
  C   C2261     1.0  0.12505  0.67033  0.61761  1.0000
  C   C2262     1.0  0.12505  0.67036  0.63252  1.0000
  C   C2263     1.0  0.12504  0.65584  0.63720  1.0000
  N   N377      1.0  0.12504  0.64667  0.62504  1.0000
  C   C2264     1.0  0.12505  0.65580  0.61291  1.0000
  N   N378      1.0  0.12505  0.65153  0.59846  1.0000
  C   C2265     1.0  0.12505  0.63711  0.59421  1.0000
  N   N379      1.0  0.12504  0.62497  0.60334  1.0000
  C   C2266     1.0  0.12504  0.61282  0.59419  1.0000
  C   C2267     1.0  0.12505  0.61751  0.57968  1.0000
  C   C2268     1.0  0.12505  0.63240  0.57967  1.0000
  N   N380      1.0  0.12504  0.60336  0.62494  1.0000
  C   C2269     1.0  0.12504  0.59422  0.61280  1.0000
  N   N381      1.0  0.12504  0.59843  0.59841  1.0000
  C   C2270     1.0  0.12504  0.57970  0.61749  1.0000
  C   C2271     1.0  0.12504  0.57971  0.63238  1.0000
  C   C2272     1.0  0.12504  0.59424  0.63708  1.0000
  C   C2273     1.0  0.12505  0.64047  0.56676  1.0000
  C   C2274     1.0  0.12505  0.63271  0.55347  1.0000
  C   C2275     1.0  0.12505  0.61726  0.55346  1.0000
  C   C2276     1.0  0.12505  0.60946  0.56674  1.0000
  C   C2277     1.0  0.12504  0.56679  0.64045  1.0000
  C   C2278     1.0  0.12504  0.55349  0.63268  1.0000
  C   C2279     1.0  0.12504  0.55349  0.61724  1.0000
  C   C2280     1.0  0.12504  0.56677  0.60943  1.0000
  N   N382      1.0  0.12504  0.62507  0.64666  1.0000
  C   C2281     1.0  0.12504  0.61294  0.65577  1.0000
  N   N383      1.0  0.12504  0.59850  0.65150  1.0000
  C   C2282     1.0  0.12504  0.61764  0.67031  1.0000
  C   C2283     1.0  0.12504  0.63254  0.67033  1.0000
  C   C2284     1.0  0.12504  0.63723  0.65581  1.0000
  C   C2285     1.0  0.12504  0.64060  0.68327  1.0000
  C   C2286     1.0  0.12504  0.63280  0.69655  1.0000
  C   C2287     1.0  0.12504  0.61734  0.69653  1.0000
  C   C2288     1.0  0.12504  0.60956  0.68322  1.0000
  N   N384      1.0  0.12504  0.65164  0.65160  1.0000
  H   H753      1.0  0.12505  0.68315  0.65191  1.0000
  H   H754      1.0  0.12505  0.68307  0.59821  1.0000
  H   H755      1.0  0.12505  0.65179  0.56693  1.0000
  H   H756      1.0  0.12504  0.59814  0.56690  1.0000
  H   H757      1.0  0.12504  0.56696  0.65177  1.0000
  H   H758      1.0  0.12504  0.56693  0.59812  1.0000
  H   H759      1.0  0.12504  0.65192  0.68312  1.0000
  H   H760      1.0  0.12504  0.59823  0.68304  1.0000
  C   C2289     1.0  0.12504  0.64038  0.70986  1.0000
  C   C2290     1.0  0.12504  0.63269  0.72311  1.0000
  C   C2291     1.0  0.12504  0.61740  0.72309  1.0000
  C   C2292     1.0  0.12504  0.60973  0.70981  1.0000
  C   C2293     1.0  0.12505  0.70990  0.64037  1.0000
  C   C2294     1.0  0.12505  0.72315  0.63268  1.0000
  C   C2295     1.0  0.12505  0.72313  0.61739  1.0000
  C   C2296     1.0  0.12505  0.70985  0.60972  1.0000
  C   C2297     1.0  0.12505  0.64032  0.54017  1.0000
  C   C2298     1.0  0.12505  0.63265  0.52691  1.0000
  C   C2299     1.0  0.12505  0.61737  0.52691  1.0000
  C   C2300     1.0  0.12505  0.60968  0.54017  1.0000
  C   C2301     1.0  0.12503  0.54020  0.64029  1.0000
  C   C2302     1.0  0.12503  0.52695  0.63264  1.0000
  C   C2303     1.0  0.12504  0.52693  0.61737  1.0000
  C   C2304     1.0  0.12504  0.54019  0.60968  1.0000
  H   H761      1.0  0.12504  0.65170  0.70990  1.0000
  O   O377      1.0  0.12504  0.64011  0.73606  1.0000
  O   O378      1.0  0.12503  0.60995  0.73602  1.0000
  H   H762      1.0  0.12503  0.59840  0.70984  1.0000
  H   H763      1.0  0.12505  0.70994  0.65169  1.0000
  O   O379      1.0  0.12505  0.73611  0.64009  1.0000
  O   O380      1.0  0.12505  0.73606  0.60994  1.0000
  H   H764      1.0  0.12505  0.70987  0.59840  1.0000
  H   H765      1.0  0.12505  0.65163  0.54014  1.0000
  O   O381      1.0  0.12505  0.64009  0.51397  1.0000
  O   O382      1.0  0.12505  0.60997  0.51397  1.0000
  H   H766      1.0  0.12505  0.59837  0.54014  1.0000
  H   H767      1.0  0.12503  0.54017  0.65159  1.0000
  O   O383      1.0  0.12503  0.51401  0.64007  1.0000
  O   O384      1.0  0.12503  0.51400  0.60996  1.0000
  H   H768      1.0  0.12504  0.54015  0.59837  1.0000
  Ni  Ni48      1.0  0.12504  0.62502  0.62500  1.0000
  Cu  Cu1       1.0  0.12502  0.00010  0.37502  1.0000
  Cu  Cu2       1.0  0.99990  0.12503  0.37503  1.0000
  Cu  Cu3       1.0  0.87502  0.99990  0.37502  1.0000
  Cu  Cu4       1.0  0.00010  0.87503  0.37501  1.0000
  Cu  Cu5       1.0  0.12501  0.00010  0.62502  1.0000
  Cu  Cu6       1.0  0.99990  0.12503  0.62501  1.0000
  Cu  Cu7       1.0  0.87501  0.99990  0.62499  1.0000
  Cu  Cu8       1.0  0.00010  0.87503  0.62500  1.0000
  Cu  Cu9       1.0  0.37496  0.12503  0.00010  1.0000
  Cu  Cu10      1.0  0.87497  0.37502  0.00010  1.0000
  Cu  Cu11      1.0  0.62505  0.87499  0.00010  1.0000
  Cu  Cu12      1.0  0.12502  0.62506  0.00010  1.0000
  Cu  Cu13      1.0  0.37506  0.87503  0.00010  1.0000
  Cu  Cu14      1.0  0.12498  0.37505  0.00010  1.0000
  Cu  Cu15      1.0  0.62499  0.12500  0.00010  1.0000
  Cu  Cu16      1.0  0.87500  0.62498  0.99990  1.0000
  Cu  Cu17      1.0  0.99990  0.37503  0.12502  1.0000
  Cu  Cu18      1.0  0.00010  0.62501  0.87500  1.0000
  Cu  Cu19      1.0  0.37500  0.00010  0.87501  1.0000
  Cu  Cu20      1.0  0.99990  0.37504  0.87503  1.0000
  Cu  Cu21      1.0  0.62503  0.99990  0.87501  1.0000
  Cu  Cu22      1.0  0.00010  0.62503  0.12501  1.0000
  Cu  Cu23      1.0  0.37502  0.00010  0.12500  1.0000
  Cu  Cu24      1.0  0.62501  0.00010  0.12502  1.0000
  Cu  Cu25      1.0  0.62501  0.49999  0.87501  1.0000
  Cu  Cu26      1.0  0.50001  0.62502  0.87501  1.0000
  Cu  Cu27      1.0  0.37501  0.50002  0.87502  1.0000
  Cu  Cu28      1.0  0.49998  0.37502  0.87502  1.0000
  Cu  Cu29      1.0  0.62500  0.50000  0.12505  1.0000
  Cu  Cu30      1.0  0.50001  0.62503  0.12502  1.0000
  Cu  Cu31      1.0  0.37500  0.50003  0.12499  1.0000
  Cu  Cu32      1.0  0.49998  0.37503  0.12501  1.0000
  Cu  Cu33      1.0  0.87503  0.62498  0.49999  1.0000
  Cu  Cu34      1.0  0.37503  0.87507  0.50002  1.0000
  Cu  Cu35      1.0  0.12498  0.37503  0.50002  1.0000
  Cu  Cu36      1.0  0.62499  0.12499  0.50002  1.0000
  Cu  Cu37      1.0  0.87497  0.37501  0.50001  1.0000
  Cu  Cu38      1.0  0.62501  0.87500  0.50001  1.0000
  Cu  Cu39      1.0  0.12506  0.62503  0.50002  1.0000
  Cu  Cu40      1.0  0.37498  0.12507  0.50000  1.0000
  Cu  Cu41      1.0  0.50001  0.87503  0.62500  1.0000
  Cu  Cu42      1.0  0.49999  0.12500  0.37502  1.0000
  Cu  Cu43      1.0  0.87500  0.50000  0.37501  1.0000
  Cu  Cu44      1.0  0.50003  0.87503  0.37501  1.0000
  Cu  Cu45      1.0  0.12503  0.50003  0.37502  1.0000
  Cu  Cu46      1.0  0.49998  0.12505  0.62502  1.0000
  Cu  Cu47      1.0  0.87500  0.50000  0.62499  1.0000
  Cu  Cu48      1.0  0.12501  0.50003  0.62501  1.0000
  Zn  Zn1       1.0  0.12499  0.25003  0.37504  1.0000
  Zn  Zn2       1.0  0.74999  0.12498  0.37502  1.0000
  Zn  Zn3       1.0  0.87504  0.75000  0.37501  1.0000
  Zn  Zn4       1.0  0.25002  0.87507  0.37499  1.0000
  Zn  Zn5       1.0  0.12504  0.75003  0.62501  1.0000
  Zn  Zn6       1.0  0.24998  0.12507  0.62502  1.0000
  Zn  Zn7       1.0  0.87498  0.25000  0.62500  1.0000
  Zn  Zn8       1.0  0.75001  0.87501  0.62499  1.0000
  Zn  Zn9       1.0  0.37497  0.12503  0.24999  1.0000
  Zn  Zn10      1.0  0.87497  0.37501  0.25002  1.0000
  Zn  Zn11      1.0  0.62503  0.87498  0.25000  1.0000
  Zn  Zn12      1.0  0.12504  0.62505  0.25003  1.0000
  Zn  Zn13      1.0  0.37503  0.87503  0.75002  1.0000
  Zn  Zn14      1.0  0.12497  0.37505  0.75001  1.0000
  Zn  Zn15      1.0  0.62500  0.12501  0.75003  1.0000
  Zn  Zn16      1.0  0.87501  0.62498  0.74998  1.0000
  Zn  Zn17      1.0  0.24997  0.37505  0.12500  1.0000
  Zn  Zn18      1.0  0.25001  0.62506  0.87501  1.0000
  Zn  Zn19      1.0  0.37496  0.25002  0.87501  1.0000
  Zn  Zn20      1.0  0.74998  0.37500  0.87502  1.0000
  Zn  Zn21      1.0  0.62504  0.74998  0.87500  1.0000
  Zn  Zn22      1.0  0.75001  0.62499  0.12503  1.0000
  Zn  Zn23      1.0  0.37505  0.75003  0.12500  1.0000
  Zn  Zn24      1.0  0.62497  0.25001  0.12503  1.0000
  Zn  Zn25      1.0  0.87502  0.75000  0.62499  1.0000
  Zn  Zn26      1.0  0.25001  0.87506  0.62501  1.0000
  Zn  Zn27      1.0  0.12497  0.25003  0.62502  1.0000
  Zn  Zn28      1.0  0.74998  0.12500  0.62500  1.0000
  Zn  Zn29      1.0  0.87498  0.25000  0.37501  1.0000
  Zn  Zn30      1.0  0.75002  0.87498  0.37502  1.0000
  Zn  Zn31      1.0  0.12506  0.75003  0.37500  1.0000
  Zn  Zn32      1.0  0.24999  0.12505  0.37503  1.0000
  Zn  Zn33      1.0  0.62503  0.87501  0.75002  1.0000
  Zn  Zn34      1.0  0.12503  0.62503  0.75000  1.0000
  Zn  Zn35      1.0  0.37496  0.12506  0.75002  1.0000
  Zn  Zn36      1.0  0.87497  0.37501  0.75000  1.0000
  Zn  Zn37      1.0  0.62498  0.12497  0.25000  1.0000
  Zn  Zn38      1.0  0.87502  0.62499  0.25000  1.0000
  Zn  Zn39      1.0  0.37505  0.87505  0.25001  1.0000
  Zn  Zn40      1.0  0.12499  0.37503  0.25003  1.0000
  Zn  Zn41      1.0  0.75001  0.62497  0.87499  1.0000
  Zn  Zn42      1.0  0.74998  0.37501  0.12504  1.0000
  Zn  Zn43      1.0  0.62504  0.75000  0.12503  1.0000
  Zn  Zn44      1.0  0.25001  0.62507  0.12500  1.0000
  Zn  Zn45      1.0  0.37496  0.25003  0.12500  1.0000
  Zn  Zn46      1.0  0.24998  0.37505  0.87502  1.0000
  Zn  Zn47      1.0  0.62499  0.24999  0.87502  1.0000
  Zn  Zn48      1.0  0.37505  0.75003  0.87502  1.0000
