data_image0
_chemical_formula_structural       Fe16C7NCNCNC3NCNC11NCNC7NHO2H2O2H2O2H2O2HNiC7NCNCNC3NCNC11NCNC7NHO2H2O2H2O2H2O2HNiC7NCNCNC3NCNC11NCNC7NHO2H2O2H2O2H2O2HNiC7NCNCNC3NCNC11NCNC7NHO2H2O2H2O2H2O2HNiC7NCNCNC3NCNC11NCNC7NHO2H2O2H2O2H2O2HNiC7NCNCNC3NCNC11NCNC7NHO2H2O2H2O2H2O2HNiC7NCNCNC3NCNC11NCNC7NHO2H2O2H2O2H2O2HNiC7NCNCNC3NCNC11NCNC7NHO2H2O2H2O2H2O2HNiC6HO2HO2C6HO2HO2C6HO2HO2C6HO2HO2C6HO2HO2C6HO2HO2C6HO2HO2C6HO2HO2C6O2HO2HCuC6O2HO2HCuC6O2HO2HCuC6O2HO2HCuC6O2HO2HCuC6O2HO2HCuC6O2HO2HCuC6O2HO2HCuC6O2HO2HCuC6O2HO2HCuC6O2HO2HCuC6O2HO2HCuC6O2HO2HCuC6O2HO2HCuC6O2HO2HCuC6O2HO2HCuC6O2HO2HCuC6O2HO2HCuC6O2HO2HCuC6O2HO2HCuC6O2HO2HCuC6O2HO2HCuC6O2HO2HCuC6O2HO2HCuC6O2HO2HCuC6O2HO2HCuC6O2HO2HCuC6O2HO2HCuC6O2HO2HCuC6O2HO2HCuC6O2HO2HCuC6O2HO2HCu
_chemical_formula_sum              "Fe16 C496 N64 H144 O224 Ni8 Cu32"
_cell_length_a       61.5416
_cell_length_b       61.5287
_cell_length_c       50.9734
_cell_angle_alpha    90
_cell_angle_beta     90.0013
_cell_angle_gamma    90.0015

_space_group_name_H-M_alt    "P 1"
_space_group_IT_number       1

loop_
  _space_group_symop_operation_xyz
  'x, y, z'

loop_
  _atom_site_type_symbol
  _atom_site_label
  _atom_site_symmetry_multiplicity
  _atom_site_fract_x
  _atom_site_fract_y
  _atom_site_fract_z
  _atom_site_occupancy
  Fe  Fe1       1.0  0.20911  0.29641  0.25066  1.0000
  Fe  Fe2       1.0  0.70912  0.21076  0.25071  1.0000
  Fe  Fe3       1.0  0.79503  0.71076  0.25066  1.0000
  Fe  Fe4       1.0  0.29496  0.79646  0.25065  1.0000
  Fe  Fe5       1.0  0.20920  0.71068  0.75066  1.0000
  Fe  Fe6       1.0  0.29500  0.21073  0.75064  1.0000
  Fe  Fe7       1.0  0.79494  0.29649  0.75067  1.0000
  Fe  Fe8       1.0  0.70919  0.79650  0.75071  1.0000
  Fe  Fe9       1.0  0.79496  0.71070  0.75065  1.0000
  Fe  Fe10      1.0  0.29505  0.79639  0.75063  1.0000
  Fe  Fe11      1.0  0.20916  0.29647  0.75066  1.0000
  Fe  Fe12      1.0  0.70913  0.21072  0.75070  1.0000
  Fe  Fe13      1.0  0.79498  0.29645  0.25066  1.0000
  Fe  Fe14      1.0  0.70918  0.79646  0.25069  1.0000
  Fe  Fe15      1.0  0.20915  0.71072  0.25068  1.0000
  Fe  Fe16      1.0  0.29490  0.21065  0.25063  1.0000
  C   C1        1.0  0.41797  0.21104  0.05888  1.0000
  C   C2        1.0  0.41159  0.21098  0.08826  1.0000
  C   C3        1.0  0.42946  0.21091  0.10985  1.0000
  C   C4        1.0  0.45380  0.21087  0.10217  1.0000
  C   C5        1.0  0.45933  0.21092  0.07287  1.0000
  C   C6        1.0  0.44223  0.21101  0.05222  1.0000
  C   C7        1.0  0.45363  0.21104  0.02557  1.0000
  N   N1        1.0  0.47835  0.21097  0.02928  1.0000
  C   C8        1.0  0.48141  0.21089  0.05912  1.0000
  N   N2        1.0  0.50203  0.21079  0.07381  1.0000
  C   C9        1.0  0.52265  0.21081  0.05913  1.0000
  N   N3        1.0  0.52571  0.21088  0.02929  1.0000
  C   C10       1.0  0.55043  0.21092  0.02559  1.0000
  C   C11       1.0  0.56183  0.21085  0.05224  1.0000
  C   C12       1.0  0.54473  0.21079  0.07289  1.0000
  N   N4        1.0  0.52572  0.21093  0.97211  1.0000
  C   C13       1.0  0.55044  0.21100  0.97581  1.0000
  N   N5        1.0  0.56260  0.21103  0.00010  1.0000
  C   C14       1.0  0.56183  0.21096  0.94915  1.0000
  C   C15       1.0  0.54474  0.21087  0.92851  1.0000
  C   C16       1.0  0.52266  0.21084  0.94226  1.0000
  C   C17       1.0  0.55026  0.21075  0.10218  1.0000
  C   C18       1.0  0.57460  0.21076  0.10986  1.0000
  C   C19       1.0  0.59247  0.21078  0.08827  1.0000
  C   C20       1.0  0.58609  0.21084  0.05890  1.0000
  C   C21       1.0  0.55026  0.21083  0.89921  1.0000
  C   C22       1.0  0.57459  0.21090  0.89153  1.0000
  C   C23       1.0  0.59247  0.21098  0.91311  1.0000
  C   C24       1.0  0.58610  0.21100  0.94249  1.0000
  N   N6        1.0  0.47836  0.21091  0.97210  1.0000
  C   C25       1.0  0.48143  0.21081  0.94226  1.0000
  N   N7        1.0  0.50204  0.21073  0.92758  1.0000
  C   C26       1.0  0.45936  0.21081  0.92849  1.0000
  C   C27       1.0  0.44225  0.21091  0.94913  1.0000
  C   C28       1.0  0.45364  0.21099  0.97579  1.0000
  C   C29       1.0  0.41799  0.21091  0.94245  1.0000
  C   C30       1.0  0.41163  0.21081  0.91307  1.0000
  C   C31       1.0  0.42952  0.21075  0.89149  1.0000
  C   C32       1.0  0.45385  0.21074  0.89920  1.0000
  N   N8        1.0  0.44148  0.21110  0.00010  1.0000
  H   H1        1.0  0.40610  0.21109  0.04407  1.0000
  O   O1        1.0  0.39120  0.21100  0.09492  1.0000
  O   O2        1.0  0.42393  0.21087  0.13446  1.0000
  H   H2        1.0  0.46606  0.21081  0.11649  1.0000
  H   H3        1.0  0.53800  0.21073  0.11651  1.0000
  O   O3        1.0  0.58013  0.21075  0.13448  1.0000
  O   O4        1.0  0.61286  0.21074  0.09494  1.0000
  H   H4        1.0  0.59795  0.21087  0.04409  1.0000
  H   H5        1.0  0.53800  0.21077  0.88489  1.0000
  O   O5        1.0  0.58012  0.21091  0.86691  1.0000
  O   O6        1.0  0.61286  0.21102  0.90644  1.0000
  H   H6        1.0  0.59797  0.21105  0.95729  1.0000
  H   H7        1.0  0.40612  0.21097  0.95725  1.0000
  O   O7        1.0  0.39125  0.21077  0.90638  1.0000
  O   O8        1.0  0.42400  0.21070  0.86687  1.0000
  H   H8        1.0  0.46612  0.21069  0.88488  1.0000
  Ni  Ni1       1.0  0.50203  0.21096  0.00010  1.0000
  C   C33       1.0  0.79531  0.58769  0.05889  1.0000
  C   C34       1.0  0.79526  0.59406  0.08827  1.0000
  C   C35       1.0  0.79518  0.57618  0.10985  1.0000
  C   C36       1.0  0.79514  0.55184  0.10217  1.0000
  C   C37       1.0  0.79519  0.54631  0.07287  1.0000
  C   C38       1.0  0.79528  0.56342  0.05223  1.0000
  C   C39       1.0  0.79530  0.55202  0.02557  1.0000
  N   N9        1.0  0.79523  0.52730  0.02928  1.0000
  C   C40       1.0  0.79515  0.52423  0.05912  1.0000
  N   N10       1.0  0.79505  0.50361  0.07380  1.0000
  C   C41       1.0  0.79506  0.48299  0.05913  1.0000
  N   N11       1.0  0.79513  0.47992  0.02928  1.0000
  C   C42       1.0  0.79516  0.45520  0.02557  1.0000
  C   C43       1.0  0.79509  0.44380  0.05223  1.0000
  C   C44       1.0  0.79504  0.46090  0.07288  1.0000
  N   N12       1.0  0.79517  0.47992  0.97210  1.0000
  C   C45       1.0  0.79523  0.45519  0.97580  1.0000
  N   N13       1.0  0.79527  0.44303  0.00010  1.0000
  C   C46       1.0  0.79519  0.44380  0.94914  1.0000
  C   C47       1.0  0.79509  0.46090  0.92850  1.0000
  C   C48       1.0  0.79507  0.48299  0.94225  1.0000
  C   C49       1.0  0.79501  0.45536  0.10217  1.0000
  C   C50       1.0  0.79501  0.43102  0.10985  1.0000
  C   C51       1.0  0.79502  0.41315  0.08825  1.0000
  C   C52       1.0  0.79508  0.41953  0.05888  1.0000
  C   C53       1.0  0.79505  0.45538  0.89920  1.0000
  C   C54       1.0  0.79512  0.43104  0.89151  1.0000
  C   C55       1.0  0.79519  0.41316  0.91309  1.0000
  C   C56       1.0  0.79522  0.41953  0.94247  1.0000
  N   N14       1.0  0.79515  0.52729  0.97210  1.0000
  C   C57       1.0  0.79505  0.52422  0.94225  1.0000
  N   N15       1.0  0.79497  0.50360  0.92758  1.0000
  C   C58       1.0  0.79506  0.54630  0.92849  1.0000
  C   C59       1.0  0.79517  0.56341  0.94913  1.0000
  C   C60       1.0  0.79524  0.55201  0.97580  1.0000
  C   C61       1.0  0.79517  0.58767  0.94246  1.0000
  C   C62       1.0  0.79506  0.59404  0.91307  1.0000
  C   C63       1.0  0.79499  0.57615  0.89150  1.0000
  C   C64       1.0  0.79498  0.55181  0.89920  1.0000
  N   N16       1.0  0.79536  0.56417  0.00010  1.0000
  H   H9        1.0  0.79536  0.59955  0.04408  1.0000
  O   O9        1.0  0.79528  0.61446  0.09493  1.0000
  O   O10       1.0  0.79516  0.58172  0.13447  1.0000
  H   H10       1.0  0.79508  0.53958  0.11649  1.0000
  H   H11       1.0  0.79499  0.46762  0.11650  1.0000
  O   O11       1.0  0.79500  0.42548  0.13446  1.0000
  O   O12       1.0  0.79498  0.39275  0.09491  1.0000
  H   H12       1.0  0.79510  0.40767  0.04407  1.0000
  H   H13       1.0  0.79499  0.46764  0.88488  1.0000
  O   O13       1.0  0.79512  0.42552  0.86689  1.0000
  O   O14       1.0  0.79523  0.39277  0.90642  1.0000
  H   H14       1.0  0.79527  0.40766  0.95727  1.0000
  H   H15       1.0  0.79522  0.59955  0.95726  1.0000
  O   O15       1.0  0.79503  0.61443  0.90639  1.0000
  O   O16       1.0  0.79494  0.58167  0.86688  1.0000
  H   H16       1.0  0.79492  0.53954  0.88488  1.0000
  Ni  Ni2       1.0  0.79521  0.50361  0.00010  1.0000
  C   C65       1.0  0.41802  0.79650  0.05888  1.0000
  C   C66       1.0  0.41164  0.79644  0.08826  1.0000
  C   C67       1.0  0.42951  0.79637  0.10985  1.0000
  C   C68       1.0  0.45385  0.79633  0.10217  1.0000
  C   C69       1.0  0.45938  0.79638  0.07287  1.0000
  C   C70       1.0  0.44228  0.79647  0.05222  1.0000
  C   C71       1.0  0.45368  0.79650  0.02557  1.0000
  N   N17       1.0  0.47840  0.79643  0.02928  1.0000
  C   C72       1.0  0.48146  0.79635  0.05912  1.0000
  N   N18       1.0  0.50208  0.79626  0.07381  1.0000
  C   C73       1.0  0.52270  0.79627  0.05913  1.0000
  N   N19       1.0  0.52576  0.79634  0.02929  1.0000
  C   C74       1.0  0.55048  0.79638  0.02558  1.0000
  C   C75       1.0  0.56187  0.79631  0.05224  1.0000
  C   C76       1.0  0.54478  0.79625  0.07289  1.0000
  N   N20       1.0  0.52577  0.79639  0.97211  1.0000
  C   C77       1.0  0.55049  0.79646  0.97581  1.0000
  N   N21       1.0  0.56264  0.79649  0.00010  1.0000
  C   C78       1.0  0.56188  0.79641  0.94915  1.0000
  C   C79       1.0  0.54478  0.79632  0.92851  1.0000
  C   C80       1.0  0.52270  0.79629  0.94226  1.0000
  C   C81       1.0  0.55031  0.79622  0.10218  1.0000
  C   C82       1.0  0.57465  0.79622  0.10986  1.0000
  C   C83       1.0  0.59252  0.79624  0.08827  1.0000
  C   C84       1.0  0.58614  0.79630  0.05889  1.0000
  C   C85       1.0  0.55031  0.79628  0.89921  1.0000
  C   C86       1.0  0.57464  0.79635  0.89152  1.0000
  C   C87       1.0  0.59251  0.79643  0.91311  1.0000
  C   C88       1.0  0.58615  0.79646  0.94249  1.0000
  N   N22       1.0  0.47841  0.79636  0.97210  1.0000
  C   C89       1.0  0.48148  0.79626  0.94226  1.0000
  N   N23       1.0  0.50209  0.79619  0.92758  1.0000
  C   C90       1.0  0.45940  0.79626  0.92849  1.0000
  C   C91       1.0  0.44230  0.79637  0.94913  1.0000
  C   C92       1.0  0.45369  0.79644  0.97579  1.0000
  C   C93       1.0  0.41804  0.79636  0.94245  1.0000
  C   C94       1.0  0.41168  0.79626  0.91307  1.0000
  C   C95       1.0  0.42957  0.79620  0.89149  1.0000
  C   C96       1.0  0.45390  0.79619  0.89920  1.0000
  N   N24       1.0  0.44153  0.79655  0.00010  1.0000
  H   H17       1.0  0.40615  0.79655  0.04407  1.0000
  O   O17       1.0  0.39125  0.79646  0.09492  1.0000
  O   O18       1.0  0.42398  0.79634  0.13446  1.0000
  H   H18       1.0  0.46611  0.79628  0.11649  1.0000
  H   H19       1.0  0.53805  0.79620  0.11651  1.0000
  O   O19       1.0  0.58018  0.79622  0.13447  1.0000
  O   O20       1.0  0.61291  0.79621  0.09493  1.0000
  H   H20       1.0  0.59800  0.79633  0.04409  1.0000
  H   H21       1.0  0.53805  0.79622  0.88489  1.0000
  O   O21       1.0  0.58016  0.79636  0.86691  1.0000
  O   O22       1.0  0.61290  0.79648  0.90644  1.0000
  H   H22       1.0  0.59801  0.79651  0.95729  1.0000
  H   H23       1.0  0.40617  0.79642  0.95725  1.0000
  O   O23       1.0  0.39129  0.79622  0.90638  1.0000
  O   O24       1.0  0.42405  0.79614  0.86687  1.0000
  H   H24       1.0  0.46616  0.79614  0.88488  1.0000
  Ni  Ni3       1.0  0.50208  0.79642  0.00010  1.0000
  C   C97       1.0  0.20923  0.58766  0.05890  1.0000
  C   C98       1.0  0.20918  0.59403  0.08828  1.0000
  C   C99       1.0  0.20910  0.57615  0.10986  1.0000
  C   C100      1.0  0.20906  0.55181  0.10217  1.0000
  C   C101      1.0  0.20911  0.54628  0.07288  1.0000
  C   C102      1.0  0.20921  0.56338  0.05224  1.0000
  C   C103      1.0  0.20923  0.55199  0.02558  1.0000
  N   N25       1.0  0.20916  0.52726  0.02928  1.0000
  C   C104      1.0  0.20908  0.52420  0.05913  1.0000
  N   N26       1.0  0.20897  0.50358  0.07381  1.0000
  C   C105      1.0  0.20898  0.48295  0.05913  1.0000
  N   N27       1.0  0.20906  0.47989  0.02928  1.0000
  C   C106      1.0  0.20909  0.45517  0.02558  1.0000
  C   C107      1.0  0.20902  0.44377  0.05223  1.0000
  C   C108      1.0  0.20896  0.46086  0.07288  1.0000
  N   N28       1.0  0.20911  0.47989  0.97210  1.0000
  C   C109      1.0  0.20917  0.45516  0.97580  1.0000
  N   N29       1.0  0.20920  0.44300  0.00010  1.0000
  C   C110      1.0  0.20913  0.44377  0.94914  1.0000
  C   C111      1.0  0.20904  0.46087  0.92850  1.0000
  C   C112      1.0  0.20902  0.48296  0.94226  1.0000
  C   C113      1.0  0.20892  0.45533  0.10217  1.0000
  C   C114      1.0  0.20892  0.43099  0.10985  1.0000
  C   C115      1.0  0.20894  0.41311  0.08825  1.0000
  C   C116      1.0  0.20900  0.41950  0.05888  1.0000
  C   C117      1.0  0.20901  0.45536  0.89920  1.0000
  C   C118      1.0  0.20907  0.43102  0.89151  1.0000
  C   C119      1.0  0.20914  0.41314  0.91309  1.0000
  C   C120      1.0  0.20917  0.41950  0.94247  1.0000
  N   N30       1.0  0.20909  0.52726  0.97210  1.0000
  C   C121      1.0  0.20900  0.52419  0.94226  1.0000
  N   N31       1.0  0.20892  0.50358  0.92758  1.0000
  C   C122      1.0  0.20901  0.54627  0.92850  1.0000
  C   C123      1.0  0.20911  0.56338  0.94914  1.0000
  C   C124      1.0  0.20918  0.55198  0.97580  1.0000
  C   C125      1.0  0.20911  0.58765  0.94247  1.0000
  C   C126      1.0  0.20902  0.59401  0.91308  1.0000
  C   C127      1.0  0.20895  0.57612  0.89150  1.0000
  C   C128      1.0  0.20894  0.55178  0.89921  1.0000
  N   N32       1.0  0.20929  0.56414  0.00010  1.0000
  H   H25       1.0  0.20929  0.59952  0.04409  1.0000
  O   O25       1.0  0.20920  0.61442  0.09494  1.0000
  O   O26       1.0  0.20906  0.58168  0.13448  1.0000
  H   H26       1.0  0.20900  0.53954  0.11650  1.0000
  H   H27       1.0  0.20890  0.46759  0.11651  1.0000
  O   O27       1.0  0.20891  0.42545  0.13446  1.0000
  O   O28       1.0  0.20890  0.39272  0.09491  1.0000
  H   H28       1.0  0.20902  0.40763  0.04407  1.0000
  H   H29       1.0  0.20895  0.46762  0.88488  1.0000
  O   O29       1.0  0.20908  0.42549  0.86690  1.0000
  O   O30       1.0  0.20919  0.39274  0.90642  1.0000
  H   H30       1.0  0.20921  0.40763  0.95727  1.0000
  H   H31       1.0  0.20917  0.59952  0.95727  1.0000
  O   O31       1.0  0.20898  0.61440  0.90640  1.0000
  O   O32       1.0  0.20890  0.58164  0.86689  1.0000
  H   H32       1.0  0.20888  0.53952  0.88489  1.0000
  Ni  Ni4       1.0  0.20914  0.50358  0.00010  1.0000
  C   C129      1.0  0.91801  0.71107  0.55889  1.0000
  C   C130      1.0  0.91164  0.71102  0.58827  1.0000
  C   C131      1.0  0.92951  0.71094  0.60986  1.0000
  C   C132      1.0  0.95385  0.71090  0.60217  1.0000
  C   C133      1.0  0.95938  0.71095  0.57288  1.0000
  C   C134      1.0  0.94228  0.71105  0.55223  1.0000
  C   C135      1.0  0.95367  0.71107  0.52558  1.0000
  N   N33       1.0  0.97839  0.71100  0.52928  1.0000
  C   C136      1.0  0.98146  0.71092  0.55913  1.0000
  N   N34       1.0  0.00207  0.71081  0.57381  1.0000
  C   C137      1.0  0.02269  0.71082  0.55913  1.0000
  N   N35       1.0  0.02576  0.71090  0.52928  1.0000
  C   C138      1.0  0.05048  0.71093  0.52558  1.0000
  C   C139      1.0  0.06187  0.71086  0.55223  1.0000
  C   C140      1.0  0.04478  0.71080  0.57288  1.0000
  N   N36       1.0  0.02576  0.71095  0.47210  1.0000
  C   C141      1.0  0.05048  0.71102  0.47580  1.0000
  N   N37       1.0  0.06264  0.71104  0.50069  1.0000
  C   C142      1.0  0.06187  0.71097  0.44914  1.0000
  C   C143      1.0  0.04477  0.71088  0.42850  1.0000
  C   C144      1.0  0.02269  0.71086  0.44226  1.0000
  C   C145      1.0  0.05031  0.71076  0.60217  1.0000
  C   C146      1.0  0.07465  0.71076  0.60985  1.0000
  C   C147      1.0  0.09252  0.71078  0.58826  1.0000
  C   C148      1.0  0.08614  0.71084  0.55888  1.0000
  C   C149      1.0  0.05029  0.71085  0.39921  1.0000
  C   C150      1.0  0.07462  0.71091  0.39152  1.0000
  C   C151      1.0  0.09250  0.71099  0.41310  1.0000
  C   C152      1.0  0.08614  0.71101  0.44248  1.0000
  N   N38       1.0  0.97840  0.71094  0.47210  1.0000
  C   C153      1.0  0.98147  0.71084  0.44226  1.0000
  N   N39       1.0  0.00208  0.71076  0.42758  1.0000
  C   C154      1.0  0.95939  0.71084  0.42850  1.0000
  C   C155      1.0  0.94229  0.71095  0.44914  1.0000
  C   C156      1.0  0.95368  0.71102  0.47580  1.0000
  C   C157      1.0  0.91803  0.71095  0.44246  1.0000
  C   C158      1.0  0.91167  0.71086  0.41308  1.0000
  C   C159      1.0  0.92955  0.71079  0.39150  1.0000
  C   C160      1.0  0.95388  0.71078  0.39920  1.0000
  N   N40       1.0  0.94152  0.71113  0.50069  1.0000
  H   H33       1.0  0.90615  0.71113  0.54408  1.0000
  O   O33       1.0  0.89125  0.71104  0.59494  1.0000
  O   O34       1.0  0.92398  0.71090  0.63447  1.0000
  H   H34       1.0  0.96611  0.71084  0.61650  1.0000
  H   H35       1.0  0.03806  0.71074  0.61651  1.0000
  O   O35       1.0  0.08018  0.71075  0.63446  1.0000
  O   O36       1.0  0.11291  0.71074  0.59492  1.0000
  H   H36       1.0  0.09800  0.71087  0.54408  1.0000
  H   H37       1.0  0.03803  0.71079  0.38488  1.0000
  O   O37       1.0  0.08015  0.71092  0.36690  1.0000
  O   O38       1.0  0.11289  0.71103  0.40643  1.0000
  H   H38       1.0  0.09800  0.71106  0.45728  1.0000
  H   H39       1.0  0.90615  0.71101  0.45726  1.0000
  O   O39       1.0  0.89128  0.71082  0.40640  1.0000
  O   O40       1.0  0.92403  0.71074  0.36688  1.0000
  H   H40       1.0  0.96615  0.71072  0.38488  1.0000
  Ni  Ni5       1.0  0.00207  0.71098  0.50069  1.0000
  C   C161      1.0  0.29529  0.08765  0.55888  1.0000
  C   C162      1.0  0.29524  0.09403  0.58826  1.0000
  C   C163      1.0  0.29517  0.07615  0.60984  1.0000
  C   C164      1.0  0.29513  0.05180  0.60216  1.0000
  C   C165      1.0  0.29517  0.04628  0.57286  1.0000
  C   C166      1.0  0.29526  0.06338  0.55222  1.0000
  C   C167      1.0  0.29529  0.05198  0.52556  1.0000
  N   N41       1.0  0.29522  0.02726  0.52927  1.0000
  C   C168      1.0  0.29514  0.02419  0.55911  1.0000
  N   N42       1.0  0.29505  0.00357  0.57379  1.0000
  C   C169      1.0  0.29506  0.98295  0.55911  1.0000
  N   N43       1.0  0.29513  0.97988  0.52927  1.0000
  C   C170      1.0  0.29517  0.95516  0.52556  1.0000
  C   C171      1.0  0.29510  0.94376  0.55222  1.0000
  C   C172      1.0  0.29505  0.96086  0.57287  1.0000
  N   N44       1.0  0.29517  0.97988  0.47209  1.0000
  C   C173      1.0  0.29524  0.95516  0.47579  1.0000
  N   N45       1.0  0.29527  0.94300  0.50067  1.0000
  C   C174      1.0  0.29519  0.94376  0.44913  1.0000
  C   C175      1.0  0.29509  0.96087  0.42849  1.0000
  C   C176      1.0  0.29506  0.98295  0.44224  1.0000
  C   C177      1.0  0.29502  0.95533  0.60216  1.0000
  C   C178      1.0  0.29502  0.93098  0.60983  1.0000
  C   C179      1.0  0.29504  0.91311  0.58824  1.0000
  C   C180      1.0  0.29510  0.91949  0.55887  1.0000
  C   C181      1.0  0.29505  0.95535  0.39919  1.0000
  C   C182      1.0  0.29512  0.93101  0.39150  1.0000
  C   C183      1.0  0.29520  0.91313  0.41308  1.0000
  C   C184      1.0  0.29523  0.91949  0.44246  1.0000
  N   N46       1.0  0.29514  0.02725  0.47209  1.0000
  C   C185      1.0  0.29503  0.02418  0.44224  1.0000
  N   N47       1.0  0.29495  0.00357  0.42757  1.0000
  C   C186      1.0  0.29503  0.04626  0.42848  1.0000
  C   C187      1.0  0.29514  0.06337  0.44912  1.0000
  C   C188      1.0  0.29522  0.05198  0.47579  1.0000
  C   C189      1.0  0.29514  0.08764  0.44245  1.0000
  C   C190      1.0  0.29503  0.09400  0.41306  1.0000
  C   C191      1.0  0.29496  0.07611  0.39149  1.0000
  C   C192      1.0  0.29496  0.05177  0.39919  1.0000
  N   N48       1.0  0.29533  0.06414  0.50067  1.0000
  H   H41       1.0  0.29533  0.09952  0.54407  1.0000
  O   O41       1.0  0.29525  0.11442  0.59492  1.0000
  O   O42       1.0  0.29514  0.08168  0.63446  1.0000
  H   H42       1.0  0.29508  0.03954  0.61648  1.0000
  H   H43       1.0  0.29499  0.96758  0.61649  1.0000
  O   O43       1.0  0.29502  0.92545  0.63445  1.0000
  O   O44       1.0  0.29501  0.89271  0.59490  1.0000
  H   H44       1.0  0.29512  0.90763  0.54406  1.0000
  H   H45       1.0  0.29498  0.96761  0.38487  1.0000
  O   O45       1.0  0.29512  0.92548  0.36688  1.0000
  O   O46       1.0  0.29524  0.89274  0.40641  1.0000
  H   H46       1.0  0.29528  0.90762  0.45726  1.0000
  H   H47       1.0  0.29519  0.09951  0.45725  1.0000
  O   O47       1.0  0.29499  0.11439  0.40638  1.0000
  O   O48       1.0  0.29490  0.08163  0.36687  1.0000
  H   H48       1.0  0.29490  0.03951  0.38487  1.0000
  Ni  Ni6       1.0  0.29520  0.00357  0.50068  1.0000
  C   C193      1.0  0.91798  0.29654  0.55889  1.0000
  C   C194      1.0  0.91161  0.29649  0.58827  1.0000
  C   C195      1.0  0.92948  0.29642  0.60986  1.0000
  C   C196      1.0  0.95382  0.29638  0.60217  1.0000
  C   C197      1.0  0.95934  0.29642  0.57288  1.0000
  C   C198      1.0  0.94225  0.29652  0.55223  1.0000
  C   C199      1.0  0.95364  0.29654  0.52558  1.0000
  N   N49       1.0  0.97836  0.29646  0.52928  1.0000
  C   C200      1.0  0.98143  0.29639  0.55913  1.0000
  N   N50       1.0  0.00204  0.29629  0.57380  1.0000
  C   C201      1.0  0.02266  0.29630  0.55913  1.0000
  N   N51       1.0  0.02572  0.29637  0.52928  1.0000
  C   C202      1.0  0.05044  0.29640  0.52558  1.0000
  C   C203      1.0  0.06184  0.29633  0.55223  1.0000
  C   C204      1.0  0.04474  0.29628  0.57288  1.0000
  N   N52       1.0  0.02572  0.29641  0.47210  1.0000
  C   C205      1.0  0.05044  0.29647  0.47580  1.0000
  N   N53       1.0  0.06260  0.29651  0.50069  1.0000
  C   C206      1.0  0.06183  0.29643  0.44914  1.0000
  C   C207      1.0  0.04473  0.29633  0.42850  1.0000
  C   C208      1.0  0.02266  0.29631  0.44226  1.0000
  C   C209      1.0  0.05028  0.29624  0.60217  1.0000
  C   C210      1.0  0.07462  0.29624  0.60985  1.0000
  C   C211      1.0  0.09249  0.29626  0.58825  1.0000
  C   C212      1.0  0.08610  0.29632  0.55888  1.0000
  C   C213      1.0  0.05025  0.29629  0.39920  1.0000
  C   C214      1.0  0.07458  0.29636  0.39151  1.0000
  C   C215      1.0  0.09246  0.29643  0.41309  1.0000
  C   C216      1.0  0.08610  0.29646  0.44247  1.0000
  N   N54       1.0  0.97836  0.29639  0.47210  1.0000
  C   C217      1.0  0.98143  0.29629  0.44226  1.0000
  N   N55       1.0  0.00204  0.29621  0.42758  1.0000
  C   C218      1.0  0.95935  0.29629  0.42850  1.0000
  C   C219      1.0  0.94225  0.29640  0.44914  1.0000
  C   C220      1.0  0.95364  0.29648  0.47580  1.0000
  C   C221      1.0  0.91799  0.29640  0.44246  1.0000
  C   C222      1.0  0.91163  0.29630  0.41308  1.0000
  C   C223      1.0  0.92951  0.29623  0.39150  1.0000
  C   C224      1.0  0.95384  0.29622  0.39920  1.0000
  N   N56       1.0  0.94149  0.29659  0.50069  1.0000
  H   H49       1.0  0.90612  0.29660  0.54409  1.0000
  O   O49       1.0  0.89122  0.29651  0.59494  1.0000
  O   O50       1.0  0.92395  0.29639  0.63447  1.0000
  H   H50       1.0  0.96608  0.29632  0.61650  1.0000
  H   H51       1.0  0.03802  0.29622  0.61651  1.0000
  O   O51       1.0  0.08015  0.29624  0.63446  1.0000
  O   O52       1.0  0.11288  0.29622  0.59491  1.0000
  H   H52       1.0  0.09796  0.29634  0.54407  1.0000
  H   H53       1.0  0.03799  0.29623  0.38488  1.0000
  O   O53       1.0  0.08011  0.29636  0.36690  1.0000
  O   O54       1.0  0.11285  0.29647  0.40642  1.0000
  H   H54       1.0  0.09797  0.29651  0.45727  1.0000
  H   H55       1.0  0.90612  0.29646  0.45726  1.0000
  O   O55       1.0  0.89124  0.29627  0.40640  1.0000
  O   O56       1.0  0.92399  0.29618  0.36688  1.0000
  H   H56       1.0  0.96611  0.29616  0.38488  1.0000
  Ni  Ni7       1.0  0.00204  0.29645  0.50069  1.0000
  C   C225      1.0  0.70925  0.91952  0.44248  1.0000
  C   C226      1.0  0.70920  0.91314  0.41310  1.0000
  C   C227      1.0  0.70912  0.93102  0.39151  1.0000
  C   C228      1.0  0.70908  0.95537  0.39920  1.0000
  C   C229      1.0  0.70913  0.96089  0.42849  1.0000
  C   C230      1.0  0.70923  0.94379  0.44914  1.0000
  C   C231      1.0  0.70925  0.95518  0.47579  1.0000
  N   N57       1.0  0.70917  0.97991  0.47209  1.0000
  C   C232      1.0  0.70909  0.98298  0.44225  1.0000
  N   N58       1.0  0.70899  0.00360  0.42757  1.0000
  C   C233      1.0  0.70900  0.02422  0.44224  1.0000
  N   N59       1.0  0.70907  0.02728  0.47209  1.0000
  C   C234      1.0  0.70911  0.05201  0.47580  1.0000
  C   C235      1.0  0.70903  0.06340  0.44914  1.0000
  C   C236      1.0  0.70898  0.04631  0.42849  1.0000
  N   N60       1.0  0.70912  0.02728  0.52927  1.0000
  C   C237      1.0  0.70918  0.05201  0.52557  1.0000
  N   N61       1.0  0.70921  0.06417  0.50068  1.0000
  C   C238      1.0  0.70914  0.06340  0.55223  1.0000
  C   C239      1.0  0.70905  0.04630  0.57287  1.0000
  C   C240      1.0  0.70903  0.02422  0.55911  1.0000
  C   C241      1.0  0.70894  0.05184  0.39920  1.0000
  C   C242      1.0  0.70894  0.07618  0.39152  1.0000
  C   C243      1.0  0.70895  0.09406  0.41312  1.0000
  C   C244      1.0  0.70902  0.08768  0.44249  1.0000
  C   C245      1.0  0.70901  0.05182  0.60217  1.0000
  C   C246      1.0  0.70907  0.07615  0.60986  1.0000
  C   C247      1.0  0.70915  0.09404  0.58828  1.0000
  C   C248      1.0  0.70917  0.08767  0.55890  1.0000
  N   N62       1.0  0.70911  0.97991  0.52927  1.0000
  C   C249      1.0  0.70901  0.98298  0.55911  1.0000
  N   N63       1.0  0.70893  0.00360  0.57379  1.0000
  C   C250      1.0  0.70901  0.96090  0.57287  1.0000
  C   C251      1.0  0.70912  0.94379  0.55223  1.0000
  C   C252      1.0  0.70919  0.95519  0.52557  1.0000
  C   C253      1.0  0.70913  0.91953  0.55891  1.0000
  C   C254      1.0  0.70903  0.91316  0.58829  1.0000
  C   C255      1.0  0.70896  0.93105  0.60987  1.0000
  C   C256      1.0  0.70895  0.95539  0.60217  1.0000
  N   N64       1.0  0.70931  0.94303  0.50068  1.0000
  H   H57       1.0  0.70931  0.90765  0.45728  1.0000
  O   O57       1.0  0.70922  0.89275  0.40643  1.0000
  O   O58       1.0  0.70909  0.92549  0.36690  1.0000
  H   H58       1.0  0.70902  0.96763  0.38487  1.0000
  H   H59       1.0  0.70892  0.03958  0.38487  1.0000
  O   O59       1.0  0.70893  0.08172  0.36691  1.0000
  O   O60       1.0  0.70891  0.11445  0.40646  1.0000
  H   H60       1.0  0.70904  0.09954  0.45730  1.0000
  H   H61       1.0  0.70895  0.03955  0.61649  1.0000
  O   O61       1.0  0.70908  0.08168  0.63448  1.0000
  O   O62       1.0  0.70919  0.11443  0.59495  1.0000
  H   H62       1.0  0.70922  0.09954  0.54410  1.0000
  H   H63       1.0  0.70918  0.90765  0.54411  1.0000
  O   O63       1.0  0.70899  0.89277  0.59497  1.0000
  O   O64       1.0  0.70891  0.92553  0.63449  1.0000
  H   H64       1.0  0.70889  0.96766  0.61649  1.0000
  Ni  Ni8       1.0  0.70916  0.00359  0.50068  1.0000
  C   C257      1.0  0.26808  0.26962  0.25065  1.0000
  C   C258      1.0  0.27397  0.24765  0.25064  1.0000
  C   C259      1.0  0.25789  0.23155  0.25064  1.0000
  C   C260      1.0  0.23592  0.23744  0.25064  1.0000
  C   C261      1.0  0.23002  0.25941  0.25065  1.0000
  C   C262      1.0  0.24611  0.27551  0.25065  1.0000
  H   H65       1.0  0.28014  0.28169  0.25065  1.0000
  O   O65       1.0  0.29375  0.24235  0.25063  1.0000
  O   O66       1.0  0.26319  0.21177  0.25063  1.0000
  H   H66       1.0  0.22385  0.22537  0.25064  1.0000
  O   O67       1.0  0.21025  0.26471  0.25065  1.0000
  O   O68       1.0  0.24080  0.29529  0.25066  1.0000
  C   C263      1.0  0.73599  0.26972  0.25069  1.0000
  C   C264      1.0  0.73007  0.24775  0.25070  1.0000
  C   C265      1.0  0.74613  0.23164  0.25069  1.0000
  C   C266      1.0  0.76811  0.23750  0.25068  1.0000
  C   C267      1.0  0.77403  0.25947  0.25067  1.0000
  C   C268      1.0  0.75797  0.27558  0.25067  1.0000
  H   H67       1.0  0.72394  0.28180  0.25070  1.0000
  O   O69       1.0  0.71028  0.24247  0.25072  1.0000
  O   O70       1.0  0.74081  0.21186  0.25070  1.0000
  H   H68       1.0  0.78016  0.22541  0.25067  1.0000
  O   O71       1.0  0.79382  0.26474  0.25065  1.0000
  O   O72       1.0  0.76329  0.29535  0.25067  1.0000
  C   C269      1.0  0.76817  0.76972  0.25068  1.0000
  C   C270      1.0  0.74619  0.77558  0.25069  1.0000
  C   C271      1.0  0.73013  0.75948  0.25067  1.0000
  C   C272      1.0  0.73604  0.73750  0.25066  1.0000
  C   C273      1.0  0.75802  0.73164  0.25066  1.0000
  C   C274      1.0  0.77409  0.74775  0.25067  1.0000
  H   H69       1.0  0.78022  0.78180  0.25069  1.0000
  O   O73       1.0  0.74087  0.79536  0.25070  1.0000
  O   O74       1.0  0.71034  0.76475  0.25067  1.0000
  H   H70       1.0  0.72399  0.72542  0.25065  1.0000
  O   O75       1.0  0.76334  0.71187  0.25064  1.0000
  O   O76       1.0  0.79387  0.74247  0.25067  1.0000
  C   C275      1.0  0.23598  0.76969  0.25066  1.0000
  C   C276      1.0  0.23008  0.74771  0.25067  1.0000
  C   C277      1.0  0.24616  0.73161  0.25067  1.0000
  C   C278      1.0  0.26814  0.73749  0.25067  1.0000
  C   C279      1.0  0.27403  0.75947  0.25066  1.0000
  C   C280      1.0  0.25796  0.77556  0.25066  1.0000
  H   H71       1.0  0.22392  0.78176  0.25066  1.0000
  O   O77       1.0  0.21030  0.74242  0.25067  1.0000
  O   O78       1.0  0.24085  0.71183  0.25068  1.0000
  H   H72       1.0  0.28019  0.72542  0.25067  1.0000
  O   O79       1.0  0.29381  0.76476  0.25066  1.0000
  O   O80       1.0  0.26326  0.79534  0.25065  1.0000
  C   C281      1.0  0.23606  0.76964  0.75064  1.0000
  C   C282      1.0  0.23015  0.74767  0.75065  1.0000
  C   C283      1.0  0.24621  0.73156  0.75065  1.0000
  C   C284      1.0  0.26819  0.73742  0.75064  1.0000
  C   C285      1.0  0.27411  0.75940  0.75063  1.0000
  C   C286      1.0  0.25804  0.77550  0.75063  1.0000
  H   H73       1.0  0.22401  0.78172  0.75065  1.0000
  O   O81       1.0  0.21036  0.74239  0.75066  1.0000
  O   O82       1.0  0.24089  0.71178  0.75066  1.0000
  H   H74       1.0  0.28025  0.72535  0.75064  1.0000
  O   O83       1.0  0.29389  0.76468  0.75062  1.0000
  O   O84       1.0  0.26336  0.79528  0.75063  1.0000
  C   C287      1.0  0.23601  0.23750  0.75065  1.0000
  C   C288      1.0  0.25799  0.23163  0.75064  1.0000
  C   C289      1.0  0.27406  0.24773  0.75064  1.0000
  C   C290      1.0  0.26816  0.26970  0.75065  1.0000
  C   C291      1.0  0.24618  0.27558  0.75065  1.0000
  C   C292      1.0  0.23010  0.25947  0.75065  1.0000
  H   H75       1.0  0.22395  0.22542  0.75065  1.0000
  O   O85       1.0  0.26330  0.21185  0.75064  1.0000
  O   O86       1.0  0.29384  0.24244  0.75064  1.0000
  H   H76       1.0  0.28021  0.28178  0.75065  1.0000
  O   O87       1.0  0.24086  0.29535  0.75066  1.0000
  O   O88       1.0  0.21032  0.26476  0.75066  1.0000
  C   C293      1.0  0.73595  0.26970  0.75068  1.0000
  C   C294      1.0  0.75792  0.27558  0.75068  1.0000
  C   C295      1.0  0.77401  0.25949  0.75068  1.0000
  C   C296      1.0  0.76812  0.23751  0.75069  1.0000
  C   C297      1.0  0.74614  0.23163  0.75069  1.0000
  C   C298      1.0  0.73006  0.24772  0.75069  1.0000
  H   H77       1.0  0.72389  0.28177  0.75068  1.0000
  O   O89       1.0  0.76323  0.29536  0.75067  1.0000
  O   O90       1.0  0.79379  0.26479  0.75067  1.0000
  H   H78       1.0  0.78018  0.22544  0.75069  1.0000
  O   O91       1.0  0.74084  0.21185  0.75070  1.0000
  O   O92       1.0  0.71028  0.24242  0.75070  1.0000
  C   C299      1.0  0.76817  0.76969  0.75070  1.0000
  C   C300      1.0  0.77405  0.74771  0.75068  1.0000
  C   C301      1.0  0.75796  0.73162  0.75066  1.0000
  C   C302      1.0  0.73599  0.73752  0.75066  1.0000
  C   C303      1.0  0.73010  0.75950  0.75069  1.0000
  C   C304      1.0  0.74620  0.77558  0.75071  1.0000
  H   H79       1.0  0.78024  0.78175  0.75072  1.0000
  O   O93       1.0  0.79382  0.74240  0.75068  1.0000
  O   O94       1.0  0.76325  0.71184  0.75064  1.0000
  H   H80       1.0  0.72392  0.72545  0.75065  1.0000
  O   O95       1.0  0.71033  0.76480  0.75069  1.0000
  O   O96       1.0  0.74090  0.79536  0.75073  1.0000
  C   C305      1.0  0.31753  0.21070  0.20204  1.0000
  C   C306      1.0  0.33520  0.21072  0.22340  1.0000
  C   C307      1.0  0.35937  0.21077  0.21563  1.0000
  C   C308      1.0  0.36593  0.21080  0.18648  1.0000
  C   C309      1.0  0.34822  0.21079  0.16503  1.0000
  C   C310      1.0  0.32406  0.21074  0.17288  1.0000
  O   O97       1.0  0.29382  0.21066  0.20965  1.0000
  O   O98       1.0  0.32881  0.21068  0.25199  1.0000
  H   H81       1.0  0.37242  0.21077  0.23148  1.0000
  O   O99       1.0  0.38969  0.21085  0.17895  1.0000
  O   O100      1.0  0.35453  0.21082  0.13635  1.0000
  H   H82       1.0  0.31098  0.21073  0.15706  1.0000
  Cu  Cu1       1.0  0.39014  0.21089  0.13599  1.0000
  C   C311      1.0  0.79500  0.33672  0.22335  1.0000
  C   C312      1.0  0.79498  0.31903  0.20200  1.0000
  C   C313      1.0  0.79498  0.32547  0.17283  1.0000
  C   C314      1.0  0.79498  0.34962  0.16492  1.0000
  C   C315      1.0  0.79500  0.36739  0.18631  1.0000
  C   C316      1.0  0.79501  0.36088  0.21548  1.0000
  O   O101      1.0  0.79501  0.33039  0.25197  1.0000
  O   O102      1.0  0.79498  0.29534  0.20971  1.0000
  H   H83       1.0  0.79496  0.31235  0.15707  1.0000
  O   O103      1.0  0.79498  0.35588  0.13624  1.0000
  O   O104      1.0  0.79501  0.39115  0.17871  1.0000
  H   H84       1.0  0.79502  0.37397  0.23128  1.0000
  Cu  Cu2       1.0  0.79499  0.39146  0.13571  1.0000
  C   C317      1.0  0.66892  0.79640  0.22337  1.0000
  C   C318      1.0  0.68661  0.79641  0.20203  1.0000
  C   C319      1.0  0.68017  0.79639  0.17286  1.0000
  C   C320      1.0  0.65602  0.79634  0.16495  1.0000
  C   C321      1.0  0.63826  0.79633  0.18634  1.0000
  C   C322      1.0  0.64477  0.79636  0.21551  1.0000
  O   O105      1.0  0.67524  0.79643  0.25200  1.0000
  O   O106      1.0  0.71029  0.79646  0.20975  1.0000
  H   H85       1.0  0.69329  0.79640  0.15710  1.0000
  O   O107      1.0  0.64977  0.79631  0.13626  1.0000
  O   O108      1.0  0.61450  0.79628  0.17873  1.0000
  H   H86       1.0  0.63167  0.79634  0.23130  1.0000
  Cu  Cu3       1.0  0.61419  0.79626  0.13573  1.0000
  C   C323      1.0  0.20914  0.67045  0.22337  1.0000
  C   C324      1.0  0.20915  0.68814  0.20203  1.0000
  C   C325      1.0  0.20915  0.68170  0.17286  1.0000
  C   C326      1.0  0.20914  0.65754  0.16495  1.0000
  C   C327      1.0  0.20913  0.63978  0.18634  1.0000
  C   C328      1.0  0.20913  0.64629  0.21551  1.0000
  O   O109      1.0  0.20913  0.67677  0.25199  1.0000
  O   O110      1.0  0.20915  0.71183  0.20974  1.0000
  H   H87       1.0  0.20916  0.69482  0.15709  1.0000
  O   O111      1.0  0.20914  0.65129  0.13626  1.0000
  O   O112      1.0  0.20913  0.61602  0.17873  1.0000
  H   H88       1.0  0.20912  0.63319  0.23130  1.0000
  Cu  Cu4       1.0  0.20913  0.61570  0.13573  1.0000
  C   C329      1.0  0.31767  0.79635  0.79923  1.0000
  C   C330      1.0  0.33535  0.79635  0.77788  1.0000
  C   C331      1.0  0.35951  0.79631  0.78566  1.0000
  C   C332      1.0  0.36606  0.79628  0.81481  1.0000
  C   C333      1.0  0.34835  0.79629  0.83625  1.0000
  C   C334      1.0  0.32418  0.79633  0.82839  1.0000
  O   O113      1.0  0.29396  0.79639  0.79160  1.0000
  O   O114      1.0  0.32896  0.79637  0.74929  1.0000
  H   H89       1.0  0.37257  0.79631  0.76982  1.0000
  O   O115      1.0  0.38982  0.79625  0.82236  1.0000
  O   O116      1.0  0.35464  0.79626  0.86494  1.0000
  H   H90       1.0  0.31110  0.79633  0.84420  1.0000
  Cu  Cu5       1.0  0.39026  0.79622  0.86532  1.0000
  C   C335      1.0  0.20916  0.31909  0.79927  1.0000
  C   C336      1.0  0.20914  0.33677  0.77791  1.0000
  C   C337      1.0  0.20913  0.36094  0.78569  1.0000
  C   C338      1.0  0.20914  0.36749  0.81484  1.0000
  C   C339      1.0  0.20915  0.34978  0.83629  1.0000
  C   C340      1.0  0.20916  0.32561  0.82843  1.0000
  O   O117      1.0  0.20917  0.29538  0.79164  1.0000
  O   O118      1.0  0.20914  0.33039  0.74932  1.0000
  H   H91       1.0  0.20912  0.37400  0.76985  1.0000
  O   O119      1.0  0.20913  0.39126  0.82239  1.0000
  O   O120      1.0  0.20916  0.35608  0.86497  1.0000
  H   H92       1.0  0.20917  0.31252  0.84424  1.0000
  Cu  Cu6       1.0  0.20914  0.39170  0.86535  1.0000
  C   C341      1.0  0.66887  0.21077  0.77801  1.0000
  C   C342      1.0  0.68656  0.21076  0.79936  1.0000
  C   C343      1.0  0.68012  0.21080  0.82853  1.0000
  C   C344      1.0  0.65597  0.21084  0.83644  1.0000
  C   C345      1.0  0.63821  0.21084  0.81505  1.0000
  C   C346      1.0  0.64472  0.21081  0.78588  1.0000
  O   O121      1.0  0.67519  0.21073  0.74939  1.0000
  O   O122      1.0  0.71024  0.21072  0.79165  1.0000
  H   H93       1.0  0.69324  0.21079  0.84429  1.0000
  O   O123      1.0  0.64972  0.21087  0.86512  1.0000
  O   O124      1.0  0.61445  0.21088  0.82265  1.0000
  H   H94       1.0  0.63162  0.21081  0.77008  1.0000
  Cu  Cu7       1.0  0.61414  0.21092  0.86565  1.0000
  C   C347      1.0  0.79498  0.67044  0.77796  1.0000
  C   C348      1.0  0.79497  0.68813  0.79931  1.0000
  C   C349      1.0  0.79497  0.68169  0.82848  1.0000
  C   C350      1.0  0.79497  0.65754  0.83639  1.0000
  C   C351      1.0  0.79498  0.63977  0.81500  1.0000
  C   C352      1.0  0.79498  0.64628  0.78583  1.0000
  O   O125      1.0  0.79498  0.67676  0.74934  1.0000
  O   O126      1.0  0.79496  0.71182  0.79159  1.0000
  H   H95       1.0  0.79496  0.69481  0.84424  1.0000
  O   O127      1.0  0.79497  0.65129  0.86508  1.0000
  O   O128      1.0  0.79499  0.61601  0.82261  1.0000
  H   H96       1.0  0.79499  0.63318  0.77004  1.0000
  Cu  Cu8       1.0  0.79498  0.61570  0.86561  1.0000
  C   C353      1.0  0.68656  0.79648  0.79932  1.0000
  C   C354      1.0  0.66889  0.79647  0.77796  1.0000
  C   C355      1.0  0.64472  0.79646  0.78573  1.0000
  C   C356      1.0  0.63817  0.79645  0.81488  1.0000
  C   C357      1.0  0.65588  0.79646  0.83633  1.0000
  C   C358      1.0  0.68004  0.79647  0.82848  1.0000
  O   O129      1.0  0.71027  0.79649  0.79170  1.0000
  O   O130      1.0  0.67528  0.79648  0.74937  1.0000
  H   H97       1.0  0.63167  0.79645  0.76988  1.0000
  O   O131      1.0  0.61440  0.79644  0.82241  1.0000
  O   O132      1.0  0.64957  0.79645  0.86501  1.0000
  H   H98       1.0  0.69312  0.79647  0.84430  1.0000
  Cu  Cu9       1.0  0.61395  0.79643  0.86537  1.0000
  C   C359      1.0  0.20913  0.67042  0.77798  1.0000
  C   C360      1.0  0.20916  0.68811  0.79932  1.0000
  C   C361      1.0  0.20913  0.68166  0.82849  1.0000
  C   C362      1.0  0.20908  0.65751  0.83640  1.0000
  C   C363      1.0  0.20906  0.63975  0.81501  1.0000
  C   C364      1.0  0.20909  0.64626  0.78584  1.0000
  O   O133      1.0  0.20916  0.67674  0.74935  1.0000
  O   O134      1.0  0.20920  0.71179  0.79161  1.0000
  H   H99       1.0  0.20914  0.69479  0.84425  1.0000
  O   O135      1.0  0.20905  0.65126  0.86509  1.0000
  O   O136      1.0  0.20901  0.61598  0.82262  1.0000
  H   H100      1.0  0.20907  0.63316  0.77005  1.0000
  Cu  Cu10      1.0  0.20899  0.61567  0.86562  1.0000
  C   C365      1.0  0.33525  0.21075  0.77795  1.0000
  C   C366      1.0  0.31756  0.21074  0.79929  1.0000
  C   C367      1.0  0.32400  0.21073  0.82847  1.0000
  C   C368      1.0  0.34815  0.21074  0.83638  1.0000
  C   C369      1.0  0.36591  0.21074  0.81499  1.0000
  C   C370      1.0  0.35941  0.21075  0.78582  1.0000
  O   O137      1.0  0.32893  0.21075  0.74933  1.0000
  O   O138      1.0  0.29388  0.21074  0.79158  1.0000
  H   H101      1.0  0.31088  0.21073  0.84423  1.0000
  O   O139      1.0  0.35440  0.21073  0.86507  1.0000
  O   O140      1.0  0.38967  0.21075  0.82260  1.0000
  H   H102      1.0  0.37250  0.21075  0.77003  1.0000
  Cu  Cu11      1.0  0.38998  0.21074  0.86560  1.0000
  C   C371      1.0  0.79499  0.33676  0.77798  1.0000
  C   C372      1.0  0.79498  0.31906  0.79932  1.0000
  C   C373      1.0  0.79501  0.32551  0.82850  1.0000
  C   C374      1.0  0.79505  0.34966  0.83641  1.0000
  C   C375      1.0  0.79506  0.36742  0.81502  1.0000
  C   C376      1.0  0.79503  0.36091  0.78585  1.0000
  O   O141      1.0  0.79496  0.33044  0.74936  1.0000
  O   O142      1.0  0.79494  0.29538  0.79161  1.0000
  H   H103      1.0  0.79500  0.31238  0.84426  1.0000
  O   O143      1.0  0.79508  0.35591  0.86510  1.0000
  O   O144      1.0  0.79510  0.39119  0.82263  1.0000
  H   H104      1.0  0.79504  0.37402  0.77006  1.0000
  Cu  Cu12      1.0  0.79513  0.39149  0.86563  1.0000
  C   C377      1.0  0.68650  0.21076  0.20211  1.0000
  C   C378      1.0  0.66882  0.21077  0.22346  1.0000
  C   C379      1.0  0.64465  0.21078  0.21568  1.0000
  C   C380      1.0  0.63811  0.21077  0.18652  1.0000
  C   C381      1.0  0.65582  0.21075  0.16508  1.0000
  C   C382      1.0  0.67998  0.21075  0.17294  1.0000
  O   O145      1.0  0.71020  0.21076  0.20974  1.0000
  O   O146      1.0  0.67520  0.21078  0.25205  1.0000
  H   H105      1.0  0.63160  0.21078  0.23152  1.0000
  O   O147      1.0  0.61435  0.21077  0.17897  1.0000
  O   O148      1.0  0.64952  0.21074  0.13640  1.0000
  H   H106      1.0  0.69307  0.21074  0.15713  1.0000
  Cu  Cu13      1.0  0.61391  0.21075  0.13602  1.0000
  C   C383      1.0  0.79506  0.68813  0.20206  1.0000
  C   C384      1.0  0.79507  0.67045  0.22342  1.0000
  C   C385      1.0  0.79510  0.64628  0.21565  1.0000
  C   C386      1.0  0.79513  0.63973  0.18650  1.0000
  C   C387      1.0  0.79512  0.65744  0.16505  1.0000
  C   C388      1.0  0.79508  0.68161  0.17290  1.0000
  O   O149      1.0  0.79502  0.71184  0.20968  1.0000
  O   O150      1.0  0.79505  0.67685  0.25201  1.0000
  H   H107      1.0  0.79511  0.63323  0.23149  1.0000
  O   O151      1.0  0.79516  0.61596  0.17896  1.0000
  O   O152      1.0  0.79514  0.65113  0.13636  1.0000
  H   H108      1.0  0.79507  0.69469  0.15708  1.0000
  Cu  Cu14      1.0  0.79518  0.61551  0.13600  1.0000
  C   C389      1.0  0.31759  0.79644  0.20205  1.0000
  C   C390      1.0  0.33527  0.79643  0.22341  1.0000
  C   C391      1.0  0.35943  0.79642  0.21564  1.0000
  C   C392      1.0  0.36599  0.79642  0.18649  1.0000
  C   C393      1.0  0.34828  0.79643  0.16504  1.0000
  C   C394      1.0  0.32411  0.79644  0.17289  1.0000
  O   O153      1.0  0.29388  0.79646  0.20968  1.0000
  O   O154      1.0  0.32887  0.79644  0.25200  1.0000
  H   H109      1.0  0.37248  0.79642  0.23149  1.0000
  O   O155      1.0  0.38975  0.79641  0.17895  1.0000
  O   O156      1.0  0.35458  0.79643  0.13636  1.0000
  H   H110      1.0  0.31103  0.79645  0.15708  1.0000
  Cu  Cu15      1.0  0.39020  0.79641  0.13600  1.0000
  C   C395      1.0  0.20907  0.33668  0.22335  1.0000
  C   C396      1.0  0.20907  0.31899  0.20201  1.0000
  C   C397      1.0  0.20904  0.32544  0.17283  1.0000
  C   C398      1.0  0.20901  0.34959  0.16493  1.0000
  C   C399      1.0  0.20900  0.36735  0.18631  1.0000
  C   C400      1.0  0.20903  0.36084  0.21549  1.0000
  O   O157      1.0  0.20910  0.33036  0.25197  1.0000
  O   O158      1.0  0.20910  0.29530  0.20972  1.0000
  H   H111      1.0  0.20904  0.31231  0.15707  1.0000
  O   O159      1.0  0.20898  0.35584  0.13624  1.0000
  O   O160      1.0  0.20897  0.39112  0.17871  1.0000
  H   H112      1.0  0.20903  0.37394  0.23128  1.0000
  Cu  Cu16      1.0  0.20894  0.39143  0.13571  1.0000
  C   C401      1.0  0.81759  0.71075  0.70205  1.0000
  C   C402      1.0  0.83526  0.71076  0.72341  1.0000
  C   C403      1.0  0.85943  0.71080  0.71565  1.0000
  C   C404      1.0  0.86598  0.71084  0.68650  1.0000
  C   C405      1.0  0.84828  0.71083  0.66505  1.0000
  C   C406      1.0  0.82411  0.71079  0.67289  1.0000
  O   O161      1.0  0.79388  0.71071  0.70967  1.0000
  O   O162      1.0  0.82887  0.71072  0.75200  1.0000
  H   H113      1.0  0.87248  0.71080  0.73149  1.0000
  O   O163      1.0  0.88975  0.71088  0.67896  1.0000
  O   O164      1.0  0.85458  0.71087  0.63636  1.0000
  H   H114      1.0  0.81103  0.71079  0.65708  1.0000
  Cu  Cu17      1.0  0.89020  0.71092  0.63600  1.0000
  C   C407      1.0  0.29505  0.83666  0.72332  1.0000
  C   C408      1.0  0.29504  0.81897  0.70197  1.0000
  C   C409      1.0  0.29503  0.82542  0.67280  1.0000
  C   C410      1.0  0.29503  0.84958  0.66490  1.0000
  C   C411      1.0  0.29504  0.86734  0.68629  1.0000
  C   C412      1.0  0.29505  0.86082  0.71546  1.0000
  O   O165      1.0  0.29507  0.83033  0.75194  1.0000
  O   O166      1.0  0.29505  0.79529  0.70968  1.0000
  H   H115      1.0  0.29503  0.81230  0.65704  1.0000
  O   O167      1.0  0.29502  0.85583  0.63622  1.0000
  O   O168      1.0  0.29504  0.89110  0.67869  1.0000
  H   H116      1.0  0.29506  0.87392  0.73126  1.0000
  Cu  Cu18      1.0  0.29502  0.89142  0.63570  1.0000
  C   C413      1.0  0.16890  0.29641  0.72335  1.0000
  C   C414      1.0  0.18659  0.29643  0.70201  1.0000
  C   C415      1.0  0.18014  0.29640  0.67283  1.0000
  C   C416      1.0  0.15600  0.29635  0.66493  1.0000
  C   C417      1.0  0.13824  0.29634  0.68631  1.0000
  C   C418      1.0  0.14475  0.29637  0.71549  1.0000
  O   O169      1.0  0.17522  0.29644  0.75197  1.0000
  O   O170      1.0  0.21027  0.29647  0.70972  1.0000
  H   H117      1.0  0.19327  0.29641  0.65707  1.0000
  O   O171      1.0  0.14975  0.29633  0.63624  1.0000
  O   O172      1.0  0.11448  0.29630  0.67871  1.0000
  H   H118      1.0  0.13165  0.29636  0.73128  1.0000
  Cu  Cu19      1.0  0.11417  0.29627  0.63571  1.0000
  C   C419      1.0  0.70913  0.18809  0.70210  1.0000
  C   C420      1.0  0.70912  0.17041  0.72345  1.0000
  C   C421      1.0  0.70912  0.14624  0.71568  1.0000
  C   C422      1.0  0.70912  0.13969  0.68652  1.0000
  C   C423      1.0  0.70913  0.15740  0.66508  1.0000
  C   C424      1.0  0.70914  0.18157  0.67294  1.0000
  O   O173      1.0  0.70913  0.21180  0.70973  1.0000
  O   O174      1.0  0.70912  0.17680  0.75204  1.0000
  H   H119      1.0  0.70911  0.13318  0.73152  1.0000
  O   O175      1.0  0.70912  0.11592  0.67898  1.0000
  O   O176      1.0  0.70914  0.15110  0.63639  1.0000
  H   H120      1.0  0.70914  0.19465  0.65712  1.0000
  Cu  Cu20      1.0  0.70913  0.11548  0.63602  1.0000
  C   C425      1.0  0.81761  0.29641  0.29926  1.0000
  C   C426      1.0  0.83528  0.29640  0.27790  1.0000
  C   C427      1.0  0.85945  0.29636  0.28568  1.0000
  C   C428      1.0  0.86600  0.29633  0.31483  1.0000
  C   C429      1.0  0.84829  0.29634  0.33628  1.0000
  C   C430      1.0  0.82412  0.29638  0.32842  1.0000
  O   O177      1.0  0.79390  0.29645  0.29163  1.0000
  O   O178      1.0  0.82890  0.29643  0.24931  1.0000
  H   H121      1.0  0.87250  0.29635  0.26984  1.0000
  O   O179      1.0  0.88976  0.29629  0.32238  1.0000
  O   O180      1.0  0.85459  0.29632  0.36496  1.0000
  H   H122      1.0  0.81104  0.29640  0.34423  1.0000
  Cu  Cu21      1.0  0.89020  0.29626  0.36533  1.0000
  C   C431      1.0  0.70918  0.81909  0.29929  1.0000
  C   C432      1.0  0.70916  0.83676  0.27793  1.0000
  C   C433      1.0  0.70915  0.86093  0.28571  1.0000
  C   C434      1.0  0.70916  0.86749  0.31486  1.0000
  C   C435      1.0  0.70917  0.84977  0.33631  1.0000
  C   C436      1.0  0.70918  0.82560  0.32845  1.0000
  O   O181      1.0  0.70919  0.79537  0.29166  1.0000
  O   O182      1.0  0.70915  0.83037  0.24934  1.0000
  H   H123      1.0  0.70914  0.87399  0.26986  1.0000
  O   O183      1.0  0.70915  0.89125  0.32240  1.0000
  O   O184      1.0  0.70918  0.85608  0.36499  1.0000
  H   H124      1.0  0.70919  0.81252  0.34427  1.0000
  Cu  Cu22      1.0  0.70916  0.89170  0.36536  1.0000
  C   C437      1.0  0.18653  0.71076  0.29928  1.0000
  C   C438      1.0  0.16885  0.71077  0.27793  1.0000
  C   C439      1.0  0.14469  0.71081  0.28570  1.0000
  C   C440      1.0  0.13814  0.71085  0.31486  1.0000
  C   C441      1.0  0.15585  0.71084  0.33630  1.0000
  C   C442      1.0  0.18001  0.71080  0.32844  1.0000
  O   O185      1.0  0.21024  0.71072  0.29166  1.0000
  O   O186      1.0  0.17524  0.71074  0.24934  1.0000
  H   H125      1.0  0.13163  0.71082  0.26986  1.0000
  O   O187      1.0  0.11438  0.71089  0.32240  1.0000
  O   O188      1.0  0.14955  0.71088  0.36499  1.0000
  H   H126      1.0  0.19309  0.71079  0.34426  1.0000
  Cu  Cu23      1.0  0.11393  0.71093  0.36536  1.0000
  C   C443      1.0  0.29492  0.17039  0.27795  1.0000
  C   C444      1.0  0.29491  0.18809  0.29929  1.0000
  C   C445      1.0  0.29491  0.18165  0.32846  1.0000
  C   C446      1.0  0.29492  0.15750  0.33637  1.0000
  C   C447      1.0  0.29494  0.13973  0.31499  1.0000
  C   C448      1.0  0.29494  0.14623  0.28582  1.0000
  O   O189      1.0  0.29493  0.17671  0.24932  1.0000
  O   O190      1.0  0.29490  0.21177  0.29157  1.0000
  H   H127      1.0  0.29490  0.19477  0.34422  1.0000
  O   O191      1.0  0.29492  0.15125  0.36506  1.0000
  O   O192      1.0  0.29495  0.11596  0.32260  1.0000
  H   H128      1.0  0.29495  0.13313  0.27003  1.0000
  Cu  Cu24      1.0  0.29494  0.11566  0.36560  1.0000
  C   C449      1.0  0.18648  0.29641  0.29927  1.0000
  C   C450      1.0  0.16881  0.29641  0.27791  1.0000
  C   C451      1.0  0.14464  0.29641  0.28569  1.0000
  C   C452      1.0  0.13809  0.29641  0.31484  1.0000
  C   C453      1.0  0.15581  0.29641  0.33629  1.0000
  C   C454      1.0  0.17997  0.29641  0.32843  1.0000
  O   O193      1.0  0.21019  0.29641  0.29164  1.0000
  O   O194      1.0  0.17519  0.29640  0.24932  1.0000
  H   H129      1.0  0.13159  0.29640  0.26985  1.0000
  O   O195      1.0  0.11433  0.29641  0.32239  1.0000
  O   O196      1.0  0.14951  0.29642  0.36497  1.0000
  H   H130      1.0  0.19305  0.29641  0.34424  1.0000
  Cu  Cu25      1.0  0.11389  0.29642  0.36535  1.0000
  C   C455      1.0  0.70907  0.17049  0.27802  1.0000
  C   C456      1.0  0.70909  0.18818  0.29937  1.0000
  C   C457      1.0  0.70906  0.18174  0.32854  1.0000
  C   C458      1.0  0.70903  0.15758  0.33645  1.0000
  C   C459      1.0  0.70901  0.13982  0.31506  1.0000
  C   C460      1.0  0.70904  0.14633  0.28589  1.0000
  O   O197      1.0  0.70910  0.17682  0.24940  1.0000
  O   O198      1.0  0.70912  0.21187  0.29166  1.0000
  H   H131      1.0  0.70907  0.19486  0.34430  1.0000
  O   O199      1.0  0.70900  0.15133  0.36513  1.0000
  O   O200      1.0  0.70898  0.11606  0.32266  1.0000
  H   H132      1.0  0.70903  0.13323  0.27009  1.0000
  Cu  Cu26      1.0  0.70895  0.11574  0.36566  1.0000
  C   C461      1.0  0.83528  0.71078  0.27797  1.0000
  C   C462      1.0  0.81759  0.71077  0.29931  1.0000
  C   C463      1.0  0.82403  0.71077  0.32848  1.0000
  C   C464      1.0  0.84818  0.71077  0.33639  1.0000
  C   C465      1.0  0.86594  0.71078  0.31501  1.0000
  C   C466      1.0  0.85944  0.71079  0.28583  1.0000
  O   O201      1.0  0.82896  0.71078  0.24934  1.0000
  O   O202      1.0  0.79391  0.71076  0.29159  1.0000
  H   H133      1.0  0.81091  0.71076  0.34424  1.0000
  O   O203      1.0  0.85443  0.71077  0.36508  1.0000
  O   O204      1.0  0.88970  0.71079  0.32261  1.0000
  H   H134      1.0  0.87253  0.71079  0.27004  1.0000
  Cu  Cu27      1.0  0.89001  0.71078  0.36561  1.0000
  C   C467      1.0  0.29501  0.83672  0.27797  1.0000
  C   C468      1.0  0.29500  0.81903  0.29931  1.0000
  C   C469      1.0  0.29502  0.82547  0.32848  1.0000
  C   C470      1.0  0.29506  0.84962  0.33639  1.0000
  C   C471      1.0  0.29508  0.86739  0.31501  1.0000
  C   C472      1.0  0.29505  0.86088  0.28584  1.0000
  O   O205      1.0  0.29498  0.83041  0.24934  1.0000
  O   O206      1.0  0.29496  0.79535  0.29159  1.0000
  H   H135      1.0  0.29501  0.81235  0.34424  1.0000
  O   O207      1.0  0.29509  0.85587  0.36508  1.0000
  O   O208      1.0  0.29512  0.89115  0.32262  1.0000
  H   H136      1.0  0.29506  0.87398  0.27004  1.0000
  Cu  Cu28      1.0  0.29514  0.89146  0.36562  1.0000
  C   C473      1.0  0.18657  0.71069  0.70206  1.0000
  C   C474      1.0  0.16889  0.71071  0.72342  1.0000
  C   C475      1.0  0.14473  0.71073  0.71565  1.0000
  C   C476      1.0  0.13817  0.71073  0.68650  1.0000
  C   C477      1.0  0.15588  0.71071  0.66505  1.0000
  C   C478      1.0  0.18005  0.71069  0.67290  1.0000
  O   O209      1.0  0.21027  0.71068  0.70969  1.0000
  O   O210      1.0  0.17528  0.71071  0.75201  1.0000
  H   H137      1.0  0.13167  0.71074  0.73149  1.0000
  O   O211      1.0  0.11441  0.71074  0.67895  1.0000
  O   O212      1.0  0.14958  0.71071  0.63636  1.0000
  H   H138      1.0  0.19313  0.71068  0.65709  1.0000
  Cu  Cu29      1.0  0.11396  0.71074  0.63600  1.0000
  C   C479      1.0  0.29503  0.18810  0.70204  1.0000
  C   C480      1.0  0.29504  0.17042  0.72340  1.0000
  C   C481      1.0  0.29507  0.14625  0.71563  1.0000
  C   C482      1.0  0.29510  0.13969  0.68648  1.0000
  C   C483      1.0  0.29509  0.15740  0.66503  1.0000
  C   C484      1.0  0.29506  0.18157  0.67288  1.0000
  O   O213      1.0  0.29500  0.21181  0.70966  1.0000
  O   O214      1.0  0.29501  0.17682  0.75199  1.0000
  H   H139      1.0  0.29508  0.13320  0.73148  1.0000
  O   O215      1.0  0.29513  0.11593  0.67895  1.0000
  O   O216      1.0  0.29512  0.15110  0.63635  1.0000
  H   H140      1.0  0.29505  0.19466  0.65706  1.0000
  Cu  Cu30      1.0  0.29516  0.11547  0.63599  1.0000
  C   C485      1.0  0.81756  0.29648  0.70207  1.0000
  C   C486      1.0  0.83524  0.29647  0.72343  1.0000
  C   C487      1.0  0.85940  0.29646  0.71566  1.0000
  C   C488      1.0  0.86596  0.29646  0.68651  1.0000
  C   C489      1.0  0.84825  0.29647  0.66506  1.0000
  C   C490      1.0  0.82408  0.29648  0.67291  1.0000
  O   O217      1.0  0.79385  0.29649  0.70969  1.0000
  O   O218      1.0  0.82884  0.29647  0.75202  1.0000
  H   H141      1.0  0.87245  0.29645  0.73150  1.0000
  O   O219      1.0  0.88972  0.29645  0.67897  1.0000
  O   O220      1.0  0.85455  0.29647  0.63637  1.0000
  H   H142      1.0  0.81100  0.29649  0.65709  1.0000
  Cu  Cu31      1.0  0.89017  0.29646  0.63601  1.0000
  C   C491      1.0  0.70914  0.83676  0.72340  1.0000
  C   C492      1.0  0.70915  0.81907  0.70206  1.0000
  C   C493      1.0  0.70912  0.82551  0.67289  1.0000
  C   C494      1.0  0.70908  0.84966  0.66498  1.0000
  C   C495      1.0  0.70907  0.86743  0.68636  1.0000
  C   C496      1.0  0.70910  0.86092  0.71554  1.0000
  O   O221      1.0  0.70917  0.83044  0.75203  1.0000
  O   O222      1.0  0.70919  0.79538  0.70978  1.0000
  H   H143      1.0  0.70912  0.81239  0.65713  1.0000
  O   O223      1.0  0.70904  0.85591  0.63629  1.0000
  O   O224      1.0  0.70903  0.89119  0.67875  1.0000
  H   H144      1.0  0.70909  0.87402  0.73133  1.0000
  Cu  Cu32      1.0  0.70899  0.89150  0.63576  1.0000
