data_image0
_chemical_formula_structural       Fe16C7NCNCNC3NCNC11NCNC7NHO2H2O2H2O2H2O2HNiC7NCNCNC3NCNC11NCNC7NHO2H2O2H2O2H2O2HNiC7NCNCNC3NCNC11NCNC7NHO2H2O2H2O2H2O2HNiC7NCNCNC3NCNC11NCNC7NHO2H2O2H2O2H2O2HNiC7NCNCNC3NCNC11NCNC7NHO2H2O2H2O2H2O2HNiC7NCNCNC3NCNC11NCNC7NHO2H2O2H2O2H2O2HNiC7NCNCNC3NCNC11NCNC7NHO2H2O2H2O2H2O2HNiC7NCNCNC3NCNC11NCNC7NHO2H2O2H2O2H2O2HNiC6HO2HO2C6HO2HO2C6HO2HO2C6HO2HO2C6HO2HO2C6HO2HO2C6HO2HO2C6HO2HO2C6O2HO2HCuC6O2HO2HCuC6O2HO2HCuC6O2HO2HCuC6O2HO2HCuC6O2HO2HCuC6O2HO2HCuC6O2HO2HCuC6O2HO2HCuC6O2HO2HCuC6O2HO2HCuC6O2HO2HCuC6O2HO2HCuC6O2HO2HCuC6O2HO2HCuC6O2HO2HCuC6O2HO2HCuC6O2HO2HCuC6O2HO2HCuC6O2HO2HCuC6O2HO2HCuC6O2HO2HCuC6O2HO2HCuC6O2HO2HCuC6O2HO2HCuC6O2HO2HCuC6O2HO2HCuC6O2HO2HCuC6O2HO2HCuC6O2HO2HCuC6O2HO2HCuC6O2HO2HCu
_chemical_formula_sum              "Fe16 C496 N64 H144 O224 Ni8 Cu32"
_cell_length_a       61.5236
_cell_length_b       61.5282
_cell_length_c       50.9789
_cell_angle_alpha    89.9997
_cell_angle_beta     89.9997
_cell_angle_gamma    89.997

_space_group_name_H-M_alt    "P 1"
_space_group_IT_number       1

loop_
  _space_group_symop_operation_xyz
  'x, y, z'

loop_
  _atom_site_type_symbol
  _atom_site_label
  _atom_site_symmetry_multiplicity
  _atom_site_fract_x
  _atom_site_fract_y
  _atom_site_fract_z
  _atom_site_occupancy
  Fe  Fe1       1.0  0.21255  0.29539  0.25005  1.0000
  Fe  Fe2       1.0  0.71255  0.20958  0.25001  1.0000
  Fe  Fe3       1.0  0.79828  0.70958  0.25004  1.0000
  Fe  Fe4       1.0  0.29829  0.79538  0.25004  1.0000
  Fe  Fe5       1.0  0.21256  0.70957  0.75001  1.0000
  Fe  Fe6       1.0  0.29829  0.20959  0.75004  1.0000
  Fe  Fe7       1.0  0.79831  0.29534  0.75006  1.0000
  Fe  Fe8       1.0  0.71251  0.79534  0.75001  1.0000
  Fe  Fe9       1.0  0.79828  0.70958  0.75004  1.0000
  Fe  Fe10      1.0  0.29829  0.79539  0.75004  1.0000
  Fe  Fe11      1.0  0.21254  0.29538  0.75003  1.0000
  Fe  Fe12      1.0  0.71256  0.20958  0.75005  1.0000
  Fe  Fe13      1.0  0.79827  0.29538  0.25006  1.0000
  Fe  Fe14      1.0  0.71255  0.79539  0.25001  1.0000
  Fe  Fe15      1.0  0.21251  0.70962  0.25001  1.0000
  Fe  Fe16      1.0  0.29833  0.20963  0.25008  1.0000
  C   C1        1.0  0.45718  0.20974  0.89861  1.0000
  C   C2        1.0  0.43284  0.20968  0.89092  1.0000
  C   C3        1.0  0.41495  0.20961  0.91250  1.0000
  C   C4        1.0  0.42132  0.20957  0.94188  1.0000
  C   C5        1.0  0.44559  0.20962  0.94855  1.0000
  C   C6        1.0  0.46270  0.20971  0.92791  1.0000
  C   C7        1.0  0.48478  0.20974  0.94166  1.0000
  N   N1        1.0  0.48172  0.20966  0.97150  1.0000
  C   C8        1.0  0.45699  0.20959  0.97521  1.0000
  N   N2        1.0  0.44483  0.20949  0.00010  1.0000
  C   C9        1.0  0.45699  0.20950  0.02498  1.0000
  N   N3        1.0  0.48172  0.20957  0.02868  1.0000
  C   C10       1.0  0.48479  0.20961  0.05852  1.0000
  C   C11       1.0  0.46271  0.20954  0.07228  1.0000
  C   C12       1.0  0.44560  0.20948  0.05164  1.0000
  N   N4        1.0  0.52909  0.20962  0.02868  1.0000
  C   C13       1.0  0.52603  0.20968  0.05852  1.0000
  N   N5        1.0  0.50541  0.20972  0.07320  1.0000
  C   C14       1.0  0.54812  0.20964  0.07227  1.0000
  C   C15       1.0  0.56522  0.20954  0.05163  1.0000
  C   C16       1.0  0.55382  0.20952  0.02497  1.0000
  C   C17       1.0  0.42133  0.20945  0.05832  1.0000
  C   C18       1.0  0.41497  0.20945  0.08771  1.0000
  C   C19       1.0  0.43286  0.20947  0.10928  1.0000
  C   C20       1.0  0.45720  0.20953  0.10157  1.0000
  C   C21       1.0  0.58949  0.20950  0.05829  1.0000
  C   C22       1.0  0.59587  0.20957  0.08766  1.0000
  C   C23       1.0  0.57799  0.20965  0.10924  1.0000
  C   C24       1.0  0.55364  0.20968  0.10156  1.0000
  N   N6        1.0  0.52909  0.20959  0.97150  1.0000
  C   C25       1.0  0.55382  0.20949  0.97521  1.0000
  N   N7        1.0  0.56598  0.20941  0.00010  1.0000
  C   C26       1.0  0.56521  0.20949  0.94856  1.0000
  C   C27       1.0  0.54811  0.20960  0.92791  1.0000
  C   C28       1.0  0.52602  0.20967  0.94166  1.0000
  C   C29       1.0  0.55364  0.20960  0.89862  1.0000
  C   C30       1.0  0.57799  0.20950  0.89094  1.0000
  C   C31       1.0  0.59587  0.20943  0.91253  1.0000
  C   C32       1.0  0.58949  0.20942  0.94191  1.0000
  N   N8        1.0  0.50540  0.20979  0.92699  1.0000
  H   H1        1.0  0.46944  0.20979  0.88429  1.0000
  O   O1        1.0  0.42731  0.20970  0.86631  1.0000
  O   O2        1.0  0.39456  0.20958  0.90583  1.0000
  H   H2        1.0  0.40945  0.20952  0.95668  1.0000
  H   H3        1.0  0.40945  0.20943  0.04353  1.0000
  O   O3        1.0  0.39458  0.20945  0.09439  1.0000
  O   O4        1.0  0.42734  0.20943  0.13389  1.0000
  H   H4        1.0  0.46947  0.20955  0.11589  1.0000
  H   H5        1.0  0.60136  0.20944  0.04349  1.0000
  O   O5        1.0  0.61626  0.20958  0.09433  1.0000
  O   O6        1.0  0.58352  0.20969  0.13386  1.0000
  H   H6        1.0  0.54138  0.20973  0.11589  1.0000
  H   H7        1.0  0.54138  0.20966  0.88429  1.0000
  O   O7        1.0  0.58352  0.20946  0.86633  1.0000
  O   O8        1.0  0.61626  0.20937  0.90586  1.0000
  H   H8        1.0  0.60135  0.20936  0.95671  1.0000
  Ni  Ni1       1.0  0.50540  0.20965  0.00010  1.0000
  C   C33       1.0  0.79807  0.45425  0.89861  1.0000
  C   C34       1.0  0.79813  0.42991  0.89092  1.0000
  C   C35       1.0  0.79820  0.41202  0.91250  1.0000
  C   C36       1.0  0.79824  0.41839  0.94188  1.0000
  C   C37       1.0  0.79819  0.44266  0.94855  1.0000
  C   C38       1.0  0.79810  0.45977  0.92791  1.0000
  C   C39       1.0  0.79807  0.48185  0.94166  1.0000
  N   N9        1.0  0.79814  0.47878  0.97150  1.0000
  C   C40       1.0  0.79822  0.45406  0.97521  1.0000
  N   N10       1.0  0.79832  0.44190  0.00010  1.0000
  C   C41       1.0  0.79831  0.45406  0.02498  1.0000
  N   N11       1.0  0.79823  0.47878  0.02868  1.0000
  C   C42       1.0  0.79819  0.48185  0.05852  1.0000
  C   C43       1.0  0.79827  0.45977  0.07228  1.0000
  C   C44       1.0  0.79833  0.44267  0.05164  1.0000
  N   N12       1.0  0.79818  0.52615  0.02868  1.0000
  C   C45       1.0  0.79812  0.52309  0.05852  1.0000
  N   N13       1.0  0.79808  0.50247  0.07320  1.0000
  C   C46       1.0  0.79816  0.54518  0.07227  1.0000
  C   C47       1.0  0.79825  0.56228  0.05163  1.0000
  C   C48       1.0  0.79828  0.55088  0.02498  1.0000
  C   C49       1.0  0.79836  0.41840  0.05832  1.0000
  C   C50       1.0  0.79836  0.41204  0.08771  1.0000
  C   C51       1.0  0.79834  0.42993  0.10928  1.0000
  C   C52       1.0  0.79828  0.45426  0.10157  1.0000
  C   C53       1.0  0.79829  0.58655  0.05829  1.0000
  C   C54       1.0  0.79822  0.59292  0.08766  1.0000
  C   C55       1.0  0.79814  0.57504  0.10925  1.0000
  C   C56       1.0  0.79812  0.55070  0.10156  1.0000
  N   N14       1.0  0.79821  0.52615  0.97150  1.0000
  C   C57       1.0  0.79831  0.55088  0.97521  1.0000
  N   N15       1.0  0.79838  0.56304  0.00010  1.0000
  C   C58       1.0  0.79830  0.56227  0.94856  1.0000
  C   C59       1.0  0.79820  0.54518  0.92791  1.0000
  C   C60       1.0  0.79813  0.52309  0.94166  1.0000
  C   C61       1.0  0.79820  0.55070  0.89862  1.0000
  C   C62       1.0  0.79830  0.57505  0.89094  1.0000
  C   C63       1.0  0.79836  0.59292  0.91253  1.0000
  C   C64       1.0  0.79837  0.58655  0.94191  1.0000
  N   N16       1.0  0.79801  0.50247  0.92699  1.0000
  H   H9        1.0  0.79802  0.46651  0.88429  1.0000
  O   O9        1.0  0.79811  0.42438  0.86631  1.0000
  O   O10       1.0  0.79823  0.39163  0.90582  1.0000
  H   H10       1.0  0.79830  0.40653  0.95668  1.0000
  H   H11       1.0  0.79839  0.40652  0.04353  1.0000
  O   O11       1.0  0.79837  0.39165  0.09439  1.0000
  O   O12       1.0  0.79838  0.42441  0.13389  1.0000
  H   H12       1.0  0.79825  0.46653  0.11589  1.0000
  H   H13       1.0  0.79835  0.59841  0.04349  1.0000
  O   O13       1.0  0.79821  0.61331  0.09433  1.0000
  O   O14       1.0  0.79810  0.58057  0.13386  1.0000
  H   H14       1.0  0.79807  0.53844  0.11589  1.0000
  H   H15       1.0  0.79814  0.53844  0.88429  1.0000
  O   O15       1.0  0.79834  0.58058  0.86633  1.0000
  O   O16       1.0  0.79841  0.61332  0.90587  1.0000
  H   H16       1.0  0.79843  0.59841  0.95671  1.0000
  Ni  Ni2       1.0  0.79815  0.50247  0.00010  1.0000
  C   C65       1.0  0.45719  0.79526  0.10159  1.0000
  C   C66       1.0  0.43285  0.79531  0.10929  1.0000
  C   C67       1.0  0.41496  0.79539  0.08771  1.0000
  C   C68       1.0  0.42133  0.79543  0.05833  1.0000
  C   C69       1.0  0.44560  0.79538  0.05166  1.0000
  C   C70       1.0  0.46270  0.79528  0.07230  1.0000
  C   C71       1.0  0.48479  0.79526  0.05854  1.0000
  N   N17       1.0  0.48172  0.79533  0.02870  1.0000
  C   C72       1.0  0.45699  0.79541  0.02500  1.0000
  N   N18       1.0  0.44483  0.79551  0.00010  1.0000
  C   C73       1.0  0.45699  0.79549  0.97522  1.0000
  N   N19       1.0  0.48171  0.79542  0.97152  1.0000
  C   C74       1.0  0.48478  0.79538  0.94168  1.0000
  C   C75       1.0  0.46270  0.79546  0.92793  1.0000
  C   C76       1.0  0.44559  0.79552  0.94856  1.0000
  N   N20       1.0  0.52909  0.79537  0.97152  1.0000
  C   C77       1.0  0.52602  0.79531  0.94168  1.0000
  N   N21       1.0  0.50540  0.79527  0.92700  1.0000
  C   C78       1.0  0.54811  0.79535  0.92792  1.0000
  C   C79       1.0  0.56521  0.79544  0.94856  1.0000
  C   C80       1.0  0.55382  0.79547  0.97522  1.0000
  C   C81       1.0  0.42132  0.79555  0.94189  1.0000
  C   C82       1.0  0.41496  0.79555  0.91251  1.0000
  C   C83       1.0  0.43285  0.79553  0.89093  1.0000
  C   C84       1.0  0.45719  0.79547  0.89863  1.0000
  C   C85       1.0  0.58948  0.79548  0.94190  1.0000
  C   C86       1.0  0.59586  0.79541  0.91253  1.0000
  C   C87       1.0  0.57797  0.79533  0.89095  1.0000
  C   C88       1.0  0.55363  0.79531  0.89863  1.0000
  N   N22       1.0  0.52909  0.79539  0.02869  1.0000
  C   C89       1.0  0.55382  0.79550  0.02499  1.0000
  N   N23       1.0  0.56598  0.79557  0.00010  1.0000
  C   C90       1.0  0.56522  0.79549  0.05163  1.0000
  C   C91       1.0  0.54812  0.79538  0.07228  1.0000
  C   C92       1.0  0.52603  0.79531  0.05853  1.0000
  C   C93       1.0  0.55365  0.79539  0.10157  1.0000
  C   C94       1.0  0.57800  0.79549  0.10925  1.0000
  C   C95       1.0  0.59587  0.79555  0.08766  1.0000
  C   C96       1.0  0.58949  0.79556  0.05828  1.0000
  N   N24       1.0  0.50541  0.79520  0.07321  1.0000
  H   H17       1.0  0.46945  0.79521  0.11591  1.0000
  O   O17       1.0  0.42732  0.79530  0.13390  1.0000
  O   O18       1.0  0.39457  0.79542  0.09439  1.0000
  H   H18       1.0  0.40946  0.79549  0.04353  1.0000
  H   H19       1.0  0.40945  0.79558  0.95668  1.0000
  O   O19       1.0  0.39457  0.79556  0.90582  1.0000
  O   O20       1.0  0.42733  0.79557  0.86632  1.0000
  H   H20       1.0  0.46946  0.79544  0.88431  1.0000
  H   H21       1.0  0.60135  0.79554  0.95670  1.0000
  O   O21       1.0  0.61625  0.79540  0.90586  1.0000
  O   O22       1.0  0.58350  0.79529  0.86633  1.0000
  H   H22       1.0  0.54137  0.79526  0.88430  1.0000
  H   H23       1.0  0.54139  0.79533  0.11590  1.0000
  O   O23       1.0  0.58353  0.79552  0.13386  1.0000
  O   O24       1.0  0.61627  0.79560  0.09432  1.0000
  H   H24       1.0  0.60135  0.79561  0.04348  1.0000
  Ni  Ni3       1.0  0.50540  0.79534  0.00010  1.0000
  C   C97       1.0  0.21236  0.55073  0.10159  1.0000
  C   C98       1.0  0.21242  0.57507  0.10928  1.0000
  C   C99       1.0  0.21249  0.59295  0.08770  1.0000
  C   C100      1.0  0.21253  0.58658  0.05831  1.0000
  C   C101      1.0  0.21249  0.56231  0.05165  1.0000
  C   C102      1.0  0.21239  0.54521  0.07229  1.0000
  C   C103      1.0  0.21237  0.52313  0.05854  1.0000
  N   N25       1.0  0.21244  0.52619  0.02870  1.0000
  C   C104      1.0  0.21252  0.55092  0.02499  1.0000
  N   N26       1.0  0.21262  0.56308  0.00010  1.0000
  C   C105      1.0  0.21261  0.55092  0.97522  1.0000
  N   N27       1.0  0.21254  0.52619  0.97152  1.0000
  C   C106      1.0  0.21250  0.52312  0.94168  1.0000
  C   C107      1.0  0.21257  0.54520  0.92792  1.0000
  C   C108      1.0  0.21263  0.56231  0.94856  1.0000
  N   N28       1.0  0.21249  0.47882  0.97152  1.0000
  C   C109      1.0  0.21243  0.48188  0.94168  1.0000
  N   N29       1.0  0.21240  0.50250  0.92700  1.0000
  C   C110      1.0  0.21247  0.45980  0.92793  1.0000
  C   C111      1.0  0.21256  0.44270  0.94857  1.0000
  C   C112      1.0  0.21259  0.45410  0.97523  1.0000
  C   C113      1.0  0.21267  0.58658  0.94187  1.0000
  C   C114      1.0  0.21267  0.59293  0.91249  1.0000
  C   C115      1.0  0.21265  0.57504  0.89092  1.0000
  C   C116      1.0  0.21259  0.55071  0.89863  1.0000
  C   C117      1.0  0.21260  0.41843  0.94191  1.0000
  C   C118      1.0  0.21254  0.41205  0.91254  1.0000
  C   C119      1.0  0.21246  0.42993  0.89096  1.0000
  C   C120      1.0  0.21243  0.45427  0.89864  1.0000
  N   N30       1.0  0.21251  0.47882  0.02870  1.0000
  C   C121      1.0  0.21261  0.45410  0.02499  1.0000
  N   N31       1.0  0.21269  0.44194  0.00010  1.0000
  C   C122      1.0  0.21260  0.44270  0.05164  1.0000
  C   C123      1.0  0.21250  0.45980  0.07229  1.0000
  C   C124      1.0  0.21243  0.48189  0.05854  1.0000
  C   C125      1.0  0.21250  0.45427  0.10158  1.0000
  C   C126      1.0  0.21260  0.42993  0.10926  1.0000
  C   C127      1.0  0.21267  0.41205  0.08767  1.0000
  C   C128      1.0  0.21267  0.41843  0.05830  1.0000
  N   N32       1.0  0.21231  0.50251  0.07321  1.0000
  H   H25       1.0  0.21231  0.53846  0.11591  1.0000
  O   O25       1.0  0.21240  0.58059  0.13389  1.0000
  O   O26       1.0  0.21252  0.61334  0.09437  1.0000
  H   H26       1.0  0.21259  0.59845  0.04351  1.0000
  H   H27       1.0  0.21269  0.59845  0.95667  1.0000
  O   O27       1.0  0.21267  0.61332  0.90581  1.0000
  O   O28       1.0  0.21269  0.58056  0.86630  1.0000
  H   H28       1.0  0.21257  0.53844  0.88431  1.0000
  H   H29       1.0  0.21266  0.40656  0.95671  1.0000
  O   O29       1.0  0.21253  0.39166  0.90587  1.0000
  O   O30       1.0  0.21242  0.42440  0.86634  1.0000
  H   H30       1.0  0.21239  0.46653  0.88431  1.0000
  H   H31       1.0  0.21244  0.46653  0.11591  1.0000
  O   O31       1.0  0.21263  0.42440  0.13387  1.0000
  O   O32       1.0  0.21272  0.39166  0.09434  1.0000
  H   H32       1.0  0.21273  0.40657  0.04349  1.0000
  Ni  Ni4       1.0  0.21246  0.50251  0.00010  1.0000
  C   C129      1.0  0.05363  0.70976  0.60151  1.0000
  C   C130      1.0  0.07798  0.70971  0.60920  1.0000
  C   C131      1.0  0.09586  0.70963  0.58762  1.0000
  C   C132      1.0  0.08949  0.70959  0.55824  1.0000
  C   C133      1.0  0.06522  0.70964  0.55158  1.0000
  C   C134      1.0  0.04811  0.70973  0.57222  1.0000
  C   C135      1.0  0.02603  0.70976  0.55846  1.0000
  N   N33       1.0  0.02910  0.70969  0.52862  1.0000
  C   C136      1.0  0.05382  0.70961  0.52492  1.0000
  N   N34       1.0  0.06598  0.70951  0.50003  1.0000
  C   C137      1.0  0.05382  0.70952  0.47514  1.0000
  N   N35       1.0  0.02910  0.70960  0.47145  1.0000
  C   C138      1.0  0.02602  0.70963  0.44160  1.0000
  C   C139      1.0  0.04811  0.70956  0.42785  1.0000
  C   C140      1.0  0.06521  0.70950  0.44848  1.0000
  N   N36       1.0  0.98172  0.70964  0.47145  1.0000
  C   C141      1.0  0.98478  0.70971  0.44161  1.0000
  N   N37       1.0  0.00540  0.70974  0.42693  1.0000
  C   C142      1.0  0.96269  0.70966  0.42785  1.0000
  C   C143      1.0  0.94559  0.70957  0.44850  1.0000
  C   C144      1.0  0.95699  0.70954  0.47515  1.0000
  C   C145      1.0  0.08948  0.70947  0.44180  1.0000
  C   C146      1.0  0.09584  0.70947  0.41242  1.0000
  C   C147      1.0  0.07795  0.70949  0.39085  1.0000
  C   C148      1.0  0.05361  0.70955  0.39855  1.0000
  C   C149      1.0  0.92132  0.70953  0.44184  1.0000
  C   C150      1.0  0.91495  0.70960  0.41247  1.0000
  C   C151      1.0  0.93283  0.70968  0.39088  1.0000
  C   C152      1.0  0.95717  0.70971  0.39856  1.0000
  N   N38       1.0  0.98172  0.70962  0.52862  1.0000
  C   C153      1.0  0.95700  0.70952  0.52492  1.0000
  N   N39       1.0  0.94483  0.70944  0.50004  1.0000
  C   C154      1.0  0.94560  0.70952  0.55157  1.0000
  C   C155      1.0  0.96270  0.70963  0.57222  1.0000
  C   C156      1.0  0.98479  0.70970  0.55846  1.0000
  C   C157      1.0  0.95717  0.70963  0.60151  1.0000
  C   C158      1.0  0.93283  0.70952  0.60919  1.0000
  C   C159      1.0  0.91495  0.70946  0.58760  1.0000
  C   C160      1.0  0.92133  0.70945  0.55822  1.0000
  N   N40       1.0  0.00541  0.70981  0.57314  1.0000
  H   H33       1.0  0.04137  0.70981  0.61584  1.0000
  O   O33       1.0  0.08350  0.70972  0.63382  1.0000
  O   O34       1.0  0.11625  0.70960  0.59430  1.0000
  H   H34       1.0  0.10136  0.70954  0.54344  1.0000
  H   H35       1.0  0.10136  0.70945  0.45659  1.0000
  O   O35       1.0  0.11623  0.70947  0.40573  1.0000
  O   O36       1.0  0.08347  0.70945  0.36623  1.0000
  H   H36       1.0  0.04134  0.70958  0.38424  1.0000
  H   H37       1.0  0.90945  0.70947  0.45664  1.0000
  O   O37       1.0  0.89455  0.70961  0.40580  1.0000
  O   O38       1.0  0.92730  0.70972  0.36627  1.0000
  H   H38       1.0  0.96943  0.70975  0.38424  1.0000
  H   H39       1.0  0.96943  0.70968  0.61583  1.0000
  O   O39       1.0  0.92729  0.70949  0.63380  1.0000
  O   O40       1.0  0.89455  0.70940  0.59426  1.0000
  H   H40       1.0  0.90946  0.70939  0.54342  1.0000
  Ni  Ni5       1.0  0.00541  0.70967  0.50004  1.0000
  C   C161      1.0  0.29806  0.95426  0.39856  1.0000
  C   C162      1.0  0.29811  0.92992  0.39086  1.0000
  C   C163      1.0  0.29819  0.91204  0.41244  1.0000
  C   C164      1.0  0.29822  0.91841  0.44182  1.0000
  C   C165      1.0  0.29818  0.94267  0.44849  1.0000
  C   C166      1.0  0.29808  0.95978  0.42785  1.0000
  C   C167      1.0  0.29806  0.98186  0.44161  1.0000
  N   N41       1.0  0.29813  0.97879  0.47145  1.0000
  C   C168      1.0  0.29821  0.95407  0.47515  1.0000
  N   N42       1.0  0.29831  0.94190  0.50004  1.0000
  C   C169      1.0  0.29829  0.95406  0.52493  1.0000
  N   N43       1.0  0.29822  0.97879  0.52863  1.0000
  C   C170      1.0  0.29818  0.98186  0.55847  1.0000
  C   C171      1.0  0.29825  0.95978  0.57222  1.0000
  C   C172      1.0  0.29831  0.94267  0.55159  1.0000
  N   N44       1.0  0.29817  0.02616  0.52863  1.0000
  C   C173      1.0  0.29811  0.02309  0.55847  1.0000
  N   N45       1.0  0.29808  0.00248  0.57315  1.0000
  C   C174      1.0  0.29815  0.04518  0.57223  1.0000
  C   C175      1.0  0.29825  0.06228  0.55158  1.0000
  C   C176      1.0  0.29827  0.05088  0.52493  1.0000
  C   C177      1.0  0.29835  0.91840  0.55826  1.0000
  C   C178      1.0  0.29834  0.91204  0.58764  1.0000
  C   C179      1.0  0.29832  0.92993  0.60922  1.0000
  C   C180      1.0  0.29826  0.95427  0.60152  1.0000
  C   C181      1.0  0.29829  0.08655  0.55825  1.0000
  C   C182      1.0  0.29822  0.09292  0.58762  1.0000
  C   C183      1.0  0.29814  0.07504  0.60920  1.0000
  C   C184      1.0  0.29811  0.05070  0.60152  1.0000
  N   N46       1.0  0.29820  0.02616  0.47146  1.0000
  C   C185      1.0  0.29830  0.05089  0.47516  1.0000
  N   N47       1.0  0.29838  0.06305  0.50004  1.0000
  C   C186      1.0  0.29830  0.06229  0.44851  1.0000
  C   C187      1.0  0.29819  0.04519  0.42786  1.0000
  C   C188      1.0  0.29812  0.02310  0.44162  1.0000
  C   C189      1.0  0.29819  0.05072  0.39858  1.0000
  C   C190      1.0  0.29830  0.07506  0.39090  1.0000
  C   C191      1.0  0.29836  0.09294  0.41249  1.0000
  C   C192      1.0  0.29837  0.08656  0.44186  1.0000
  N   N48       1.0  0.29800  0.00248  0.42694  1.0000
  H   H41       1.0  0.29801  0.96653  0.38424  1.0000
  O   O41       1.0  0.29809  0.92440  0.36625  1.0000
  O   O42       1.0  0.29822  0.89165  0.40576  1.0000
  H   H42       1.0  0.29828  0.90654  0.45662  1.0000
  H   H43       1.0  0.29837  0.90653  0.54347  1.0000
  O   O43       1.0  0.29835  0.89165  0.59433  1.0000
  O   O44       1.0  0.29836  0.92441  0.63383  1.0000
  H   H44       1.0  0.29824  0.96653  0.61583  1.0000
  H   H45       1.0  0.29835  0.09842  0.54345  1.0000
  O   O45       1.0  0.29821  0.11332  0.59429  1.0000
  O   O46       1.0  0.29810  0.08057  0.63381  1.0000
  H   H46       1.0  0.29806  0.03844  0.61584  1.0000
  H   H47       1.0  0.29814  0.03846  0.38425  1.0000
  O   O47       1.0  0.29833  0.08060  0.36629  1.0000
  O   O48       1.0  0.29842  0.11333  0.40583  1.0000
  H   H48       1.0  0.29843  0.09842  0.45667  1.0000
  Ni  Ni6       1.0  0.29814  0.00247  0.50004  1.0000
  C   C193      1.0  0.95719  0.29564  0.39855  1.0000
  C   C194      1.0  0.93284  0.29558  0.39086  1.0000
  C   C195      1.0  0.91496  0.29550  0.41244  1.0000
  C   C196      1.0  0.92133  0.29546  0.44182  1.0000
  C   C197      1.0  0.94560  0.29551  0.44849  1.0000
  C   C198      1.0  0.96271  0.29561  0.42785  1.0000
  C   C199      1.0  0.98479  0.29564  0.44160  1.0000
  N   N49       1.0  0.98172  0.29556  0.47144  1.0000
  C   C200      1.0  0.95700  0.29548  0.47515  1.0000
  N   N50       1.0  0.94483  0.29538  0.50003  1.0000
  C   C201      1.0  0.95700  0.29539  0.52492  1.0000
  N   N51       1.0  0.98172  0.29547  0.52862  1.0000
  C   C202      1.0  0.98480  0.29550  0.55846  1.0000
  C   C203      1.0  0.96271  0.29543  0.57222  1.0000
  C   C204      1.0  0.94560  0.29537  0.55158  1.0000
  N   N52       1.0  0.02910  0.29552  0.52862  1.0000
  C   C205      1.0  0.02604  0.29558  0.55846  1.0000
  N   N53       1.0  0.00542  0.29561  0.57314  1.0000
  C   C206      1.0  0.04812  0.29554  0.57221  1.0000
  C   C207      1.0  0.06523  0.29545  0.55157  1.0000
  C   C208      1.0  0.05383  0.29542  0.52492  1.0000
  C   C209      1.0  0.92133  0.29533  0.55826  1.0000
  C   C210      1.0  0.91498  0.29533  0.58765  1.0000
  C   C211      1.0  0.93287  0.29535  0.60922  1.0000
  C   C212      1.0  0.95720  0.29542  0.60151  1.0000
  C   C213      1.0  0.08950  0.29541  0.55823  1.0000
  C   C214      1.0  0.09587  0.29548  0.58760  1.0000
  C   C215      1.0  0.07799  0.29555  0.60919  1.0000
  C   C216      1.0  0.05365  0.29558  0.60150  1.0000
  N   N54       1.0  0.02910  0.29550  0.47144  1.0000
  C   C217      1.0  0.05382  0.29540  0.47515  1.0000
  N   N55       1.0  0.06598  0.29532  0.50003  1.0000
  C   C218      1.0  0.06522  0.29541  0.44850  1.0000
  C   C219      1.0  0.04812  0.29551  0.42785  1.0000
  C   C220      1.0  0.02603  0.29558  0.44160  1.0000
  C   C221      1.0  0.05365  0.29551  0.39856  1.0000
  C   C222      1.0  0.07799  0.29541  0.39088  1.0000
  C   C223      1.0  0.09587  0.29535  0.41247  1.0000
  C   C224      1.0  0.08949  0.29534  0.44185  1.0000
  N   N56       1.0  0.00541  0.29569  0.42693  1.0000
  H   H49       1.0  0.96945  0.29569  0.38423  1.0000
  O   O49       1.0  0.92732  0.29560  0.36625  1.0000
  O   O50       1.0  0.89457  0.29547  0.40577  1.0000
  H   H50       1.0  0.90946  0.29541  0.45662  1.0000
  H   H51       1.0  0.90946  0.29531  0.54347  1.0000
  O   O51       1.0  0.89458  0.29532  0.59433  1.0000
  O   O52       1.0  0.92735  0.29531  0.63383  1.0000
  H   H52       1.0  0.96947  0.29544  0.61583  1.0000
  H   H53       1.0  0.10136  0.29535  0.54343  1.0000
  O   O53       1.0  0.11627  0.29548  0.59427  1.0000
  O   O54       1.0  0.08352  0.29559  0.63380  1.0000
  H   H54       1.0  0.04139  0.29562  0.61583  1.0000
  H   H55       1.0  0.04139  0.29557  0.38423  1.0000
  O   O55       1.0  0.08353  0.29538  0.36627  1.0000
  O   O56       1.0  0.11627  0.29530  0.40581  1.0000
  H   H56       1.0  0.10136  0.29528  0.45665  1.0000
  Ni  Ni7       1.0  0.00541  0.29555  0.50003  1.0000
  C   C225      1.0  0.71236  0.05070  0.60152  1.0000
  C   C226      1.0  0.71242  0.07504  0.60921  1.0000
  C   C227      1.0  0.71250  0.09293  0.58763  1.0000
  C   C228      1.0  0.71254  0.08656  0.55825  1.0000
  C   C229      1.0  0.71249  0.06229  0.55158  1.0000
  C   C230      1.0  0.71239  0.04519  0.57222  1.0000
  C   C231      1.0  0.71236  0.02310  0.55847  1.0000
  N   N57       1.0  0.71244  0.02617  0.52863  1.0000
  C   C232      1.0  0.71252  0.05090  0.52493  1.0000
  N   N58       1.0  0.71262  0.06306  0.50004  1.0000
  C   C233      1.0  0.71261  0.05090  0.47515  1.0000
  N   N59       1.0  0.71253  0.02618  0.47145  1.0000
  C   C234      1.0  0.71250  0.02311  0.44161  1.0000
  C   C235      1.0  0.71257  0.04519  0.42785  1.0000
  C   C236      1.0  0.71263  0.06230  0.44849  1.0000
  N   N60       1.0  0.71248  0.97881  0.47144  1.0000
  C   C237      1.0  0.71242  0.98187  0.44160  1.0000
  N   N61       1.0  0.71239  0.00249  0.42693  1.0000
  C   C238      1.0  0.71246  0.95979  0.42785  1.0000
  C   C239      1.0  0.71255  0.94268  0.44849  1.0000
  C   C240      1.0  0.71258  0.95408  0.47514  1.0000
  C   C241      1.0  0.71267  0.08656  0.44181  1.0000
  C   C242      1.0  0.71267  0.09293  0.41243  1.0000
  C   C243      1.0  0.71265  0.07504  0.39086  1.0000
  C   C244      1.0  0.71259  0.05070  0.39856  1.0000
  C   C245      1.0  0.71259  0.91841  0.44183  1.0000
  C   C246      1.0  0.71252  0.91204  0.41245  1.0000
  C   C247      1.0  0.71245  0.92992  0.39087  1.0000
  C   C248      1.0  0.71242  0.95426  0.39856  1.0000
  N   N62       1.0  0.71250  0.97880  0.52862  1.0000
  C   C249      1.0  0.71260  0.95408  0.52491  1.0000
  N   N63       1.0  0.71268  0.94192  0.50003  1.0000
  C   C250      1.0  0.71259  0.94268  0.55156  1.0000
  C   C251      1.0  0.71249  0.95978  0.57221  1.0000
  C   C252      1.0  0.71242  0.98187  0.55846  1.0000
  C   C253      1.0  0.71249  0.95425  0.60150  1.0000
  C   C254      1.0  0.71259  0.92990  0.60918  1.0000
  C   C255      1.0  0.71265  0.91203  0.58758  1.0000
  C   C256      1.0  0.71266  0.91841  0.55821  1.0000
  N   N64       1.0  0.71231  0.00248  0.57314  1.0000
  H   H57       1.0  0.71231  0.03844  0.61584  1.0000
  O   O57       1.0  0.71240  0.08057  0.63383  1.0000
  O   O58       1.0  0.71253  0.11332  0.59431  1.0000
  H   H58       1.0  0.71260  0.09843  0.54345  1.0000
  H   H59       1.0  0.71269  0.09844  0.45660  1.0000
  O   O59       1.0  0.71268  0.11332  0.40575  1.0000
  O   O60       1.0  0.71269  0.08056  0.36624  1.0000
  H   H60       1.0  0.71256  0.03843  0.38424  1.0000
  H   H61       1.0  0.71265  0.90655  0.45663  1.0000
  O   O61       1.0  0.71252  0.89165  0.40578  1.0000
  O   O62       1.0  0.71241  0.92440  0.36626  1.0000
  H   H62       1.0  0.71238  0.96652  0.38423  1.0000
  H   H63       1.0  0.71243  0.96650  0.61583  1.0000
  O   O63       1.0  0.71262  0.92437  0.63379  1.0000
  O   O64       1.0  0.71270  0.89163  0.59425  1.0000
  H   H64       1.0  0.71272  0.90655  0.54340  1.0000
  Ni  Ni8       1.0  0.71245  0.00249  0.50004  1.0000
  C   C257      1.0  0.27153  0.26860  0.25007  1.0000
  C   C258      1.0  0.27742  0.24663  0.25007  1.0000
  C   C259      1.0  0.26134  0.23053  0.25008  1.0000
  C   C260      1.0  0.23936  0.23642  0.25007  1.0000
  C   C261      1.0  0.23346  0.25839  0.25006  1.0000
  C   C262      1.0  0.24955  0.27449  0.25006  1.0000
  H   H65       1.0  0.28359  0.28068  0.25006  1.0000
  O   O65       1.0  0.29721  0.24133  0.25008  1.0000
  O   O66       1.0  0.26665  0.21075  0.25009  1.0000
  H   H66       1.0  0.22729  0.22435  0.25007  1.0000
  O   O67       1.0  0.21368  0.26369  0.25006  1.0000
  O   O68       1.0  0.24424  0.29427  0.25005  1.0000
  C   C263      1.0  0.73931  0.26856  0.25004  1.0000
  C   C264      1.0  0.73344  0.24657  0.25003  1.0000
  C   C265      1.0  0.74954  0.23050  0.25003  1.0000
  C   C266      1.0  0.77151  0.23640  0.25003  1.0000
  C   C267      1.0  0.77739  0.25838  0.25005  1.0000
  C   C268      1.0  0.76129  0.27446  0.25005  1.0000
  H   H67       1.0  0.72723  0.28062  0.25004  1.0000
  O   O69       1.0  0.71366  0.24126  0.25002  1.0000
  O   O70       1.0  0.74425  0.21071  0.25002  1.0000
  H   H68       1.0  0.78359  0.22434  0.25003  1.0000
  O   O71       1.0  0.79717  0.26370  0.25005  1.0000
  O   O72       1.0  0.76657  0.29424  0.25006  1.0000
  C   C269      1.0  0.77151  0.76856  0.25003  1.0000
  C   C270      1.0  0.74954  0.77447  0.25002  1.0000
  C   C271      1.0  0.73344  0.75839  0.25001  1.0000
  C   C272      1.0  0.73931  0.73641  0.25002  1.0000
  C   C273      1.0  0.76129  0.73050  0.25003  1.0000
  C   C274      1.0  0.77739  0.74658  0.25003  1.0000
  H   H69       1.0  0.78359  0.78062  0.25003  1.0000
  O   O73       1.0  0.74425  0.79425  0.25001  1.0000
  O   O74       1.0  0.71366  0.76370  0.25001  1.0000
  H   H70       1.0  0.72724  0.72435  0.25002  1.0000
  O   O75       1.0  0.76658  0.71072  0.25004  1.0000
  O   O76       1.0  0.79717  0.74127  0.25004  1.0000
  C   C275      1.0  0.23931  0.76859  0.25003  1.0000
  C   C276      1.0  0.23342  0.74661  0.25002  1.0000
  C   C277      1.0  0.24951  0.73052  0.25002  1.0000
  C   C278      1.0  0.27149  0.73641  0.25003  1.0000
  C   C279      1.0  0.27738  0.75839  0.25003  1.0000
  C   C280      1.0  0.26129  0.77448  0.25003  1.0000
  H   H71       1.0  0.22724  0.78066  0.25002  1.0000
  O   O77       1.0  0.21364  0.74132  0.25001  1.0000
  O   O78       1.0  0.24420  0.71074  0.25002  1.0000
  H   H72       1.0  0.28355  0.72434  0.25003  1.0000
  O   O79       1.0  0.29716  0.76368  0.25004  1.0000
  O   O80       1.0  0.26659  0.79426  0.25004  1.0000
  C   C281      1.0  0.23932  0.76856  0.75002  1.0000
  C   C282      1.0  0.23345  0.74657  0.75001  1.0000
  C   C283      1.0  0.24955  0.73049  0.75001  1.0000
  C   C284      1.0  0.27153  0.73640  0.75002  1.0000
  C   C285      1.0  0.27740  0.75838  0.75003  1.0000
  C   C286      1.0  0.26130  0.77446  0.75003  1.0000
  H   H73       1.0  0.22725  0.78061  0.75001  1.0000
  O   O81       1.0  0.21367  0.74126  0.75000  1.0000
  O   O82       1.0  0.24427  0.71071  0.75001  1.0000
  H   H74       1.0  0.28361  0.72434  0.75002  1.0000
  O   O83       1.0  0.29718  0.76370  0.75004  1.0000
  O   O84       1.0  0.26658  0.79424  0.75003  1.0000
  C   C287      1.0  0.23932  0.23641  0.75003  1.0000
  C   C288      1.0  0.26130  0.23051  0.75003  1.0000
  C   C289      1.0  0.27739  0.24659  0.75003  1.0000
  C   C290      1.0  0.27151  0.26857  0.75003  1.0000
  C   C291      1.0  0.24953  0.27447  0.75003  1.0000
  C   C292      1.0  0.23344  0.25839  0.75003  1.0000
  H   H75       1.0  0.22725  0.22434  0.75003  1.0000
  O   O85       1.0  0.26659  0.21072  0.75003  1.0000
  O   O86       1.0  0.29717  0.24128  0.75004  1.0000
  H   H76       1.0  0.28358  0.28063  0.75003  1.0000
  O   O87       1.0  0.24424  0.29425  0.75003  1.0000
  O   O88       1.0  0.21366  0.26370  0.75003  1.0000
  C   C293      1.0  0.73934  0.26855  0.75007  1.0000
  C   C294      1.0  0.76132  0.27444  0.75007  1.0000
  C   C295      1.0  0.77741  0.25835  0.75006  1.0000
  C   C296      1.0  0.77153  0.23637  0.75005  1.0000
  C   C297      1.0  0.74955  0.23048  0.75006  1.0000
  C   C298      1.0  0.73345  0.24657  0.75006  1.0000
  H   H77       1.0  0.72727  0.28061  0.75007  1.0000
  O   O89       1.0  0.76662  0.29422  0.75007  1.0000
  O   O90       1.0  0.79720  0.26365  0.75006  1.0000
  H   H78       1.0  0.78359  0.22430  0.75005  1.0000
  O   O91       1.0  0.74425  0.21070  0.75005  1.0000
  O   O92       1.0  0.71367  0.24127  0.75006  1.0000
  C   C299      1.0  0.77148  0.76855  0.75002  1.0000
  C   C300      1.0  0.77737  0.74657  0.75003  1.0000
  C   C301      1.0  0.76128  0.73048  0.75003  1.0000
  C   C302      1.0  0.73930  0.73637  0.75003  1.0000
  C   C303      1.0  0.73341  0.75835  0.75002  1.0000
  C   C304      1.0  0.74950  0.77444  0.75001  1.0000
  H   H79       1.0  0.78354  0.78062  0.75002  1.0000
  O   O93       1.0  0.79715  0.74128  0.75003  1.0000
  O   O94       1.0  0.76659  0.71070  0.75004  1.0000
  H   H80       1.0  0.72724  0.72430  0.75003  1.0000
  O   O95       1.0  0.71363  0.76365  0.75001  1.0000
  O   O96       1.0  0.74419  0.79422  0.75000  1.0000
  C   C305      1.0  0.32095  0.20960  0.20149  1.0000
  C   C306      1.0  0.33864  0.20960  0.22283  1.0000
  C   C307      1.0  0.36281  0.20956  0.21505  1.0000
  C   C308      1.0  0.36935  0.20954  0.18590  1.0000
  C   C309      1.0  0.35163  0.20954  0.16446  1.0000
  C   C310      1.0  0.32746  0.20957  0.17233  1.0000
  O   O97       1.0  0.29724  0.20963  0.20912  1.0000
  O   O98       1.0  0.33225  0.20962  0.25142  1.0000
  H   H81       1.0  0.37587  0.20956  0.23089  1.0000
  O   O99       1.0  0.39312  0.20951  0.17835  1.0000
  O   O100      1.0  0.35792  0.20951  0.13578  1.0000
  H   H82       1.0  0.31437  0.20958  0.15652  1.0000
  Cu  Cu1       1.0  0.39355  0.20947  0.13539  1.0000
  C   C311      1.0  0.79828  0.33564  0.22274  1.0000
  C   C312      1.0  0.79829  0.31795  0.20141  1.0000
  C   C313      1.0  0.79831  0.32439  0.17224  1.0000
  C   C314      1.0  0.79832  0.34854  0.16433  1.0000
  C   C315      1.0  0.79831  0.36631  0.18571  1.0000
  C   C316      1.0  0.79829  0.35980  0.21488  1.0000
  O   O101      1.0  0.79826  0.32932  0.25136  1.0000
  O   O102      1.0  0.79827  0.29426  0.20912  1.0000
  H   H83       1.0  0.79831  0.31127  0.15648  1.0000
  O   O103      1.0  0.79834  0.35479  0.13564  1.0000
  O   O104      1.0  0.79833  0.39007  0.17810  1.0000
  H   H84       1.0  0.79829  0.37290  0.23067  1.0000
  Cu  Cu2       1.0  0.79835  0.39038  0.13511  1.0000
  C   C317      1.0  0.67228  0.79542  0.22269  1.0000
  C   C318      1.0  0.68998  0.79542  0.20135  1.0000
  C   C319      1.0  0.68354  0.79544  0.17218  1.0000
  C   C320      1.0  0.65939  0.79547  0.16427  1.0000
  C   C321      1.0  0.64162  0.79548  0.18565  1.0000
  C   C322      1.0  0.64813  0.79545  0.21482  1.0000
  O   O105      1.0  0.67860  0.79540  0.25131  1.0000
  O   O106      1.0  0.71367  0.79539  0.20907  1.0000
  H   H85       1.0  0.69667  0.79544  0.15643  1.0000
  O   O107      1.0  0.65314  0.79550  0.13559  1.0000
  O   O108      1.0  0.61785  0.79551  0.17804  1.0000
  H   H86       1.0  0.63502  0.79546  0.23061  1.0000
  Cu  Cu3       1.0  0.61755  0.79553  0.13505  1.0000
  C   C323      1.0  0.21251  0.66936  0.22271  1.0000
  C   C324      1.0  0.21251  0.68705  0.20137  1.0000
  C   C325      1.0  0.21250  0.68061  0.17220  1.0000
  C   C326      1.0  0.21249  0.65646  0.16429  1.0000
  C   C327      1.0  0.21249  0.63869  0.18568  1.0000
  C   C328      1.0  0.21250  0.64520  0.21484  1.0000
  O   O109      1.0  0.21252  0.67568  0.25133  1.0000
  O   O110      1.0  0.21251  0.71074  0.20908  1.0000
  H   H87       1.0  0.21249  0.69373  0.15644  1.0000
  O   O111      1.0  0.21248  0.65020  0.13561  1.0000
  O   O112      1.0  0.21248  0.61493  0.17807  1.0000
  H   H88       1.0  0.21251  0.63210  0.23064  1.0000
  Cu  Cu4       1.0  0.21247  0.61462  0.13508  1.0000
  C   C329      1.0  0.32091  0.79542  0.79863  1.0000
  C   C330      1.0  0.33859  0.79542  0.77728  1.0000
  C   C331      1.0  0.36277  0.79545  0.78505  1.0000
  C   C332      1.0  0.36932  0.79548  0.81420  1.0000
  C   C333      1.0  0.35160  0.79547  0.83565  1.0000
  C   C334      1.0  0.32743  0.79544  0.82779  1.0000
  O   O113      1.0  0.29720  0.79539  0.79101  1.0000
  O   O114      1.0  0.33220  0.79540  0.74869  1.0000
  H   H89       1.0  0.37582  0.79546  0.76921  1.0000
  O   O115      1.0  0.39309  0.79551  0.82175  1.0000
  O   O116      1.0  0.35790  0.79549  0.86433  1.0000
  H   H90       1.0  0.31435  0.79543  0.84360  1.0000
  Cu  Cu5       1.0  0.39353  0.79553  0.86470  1.0000
  C   C335      1.0  0.21253  0.31801  0.79863  1.0000
  C   C336      1.0  0.21254  0.33570  0.77728  1.0000
  C   C337      1.0  0.21253  0.35986  0.78507  1.0000
  C   C338      1.0  0.21252  0.36641  0.81422  1.0000
  C   C339      1.0  0.21251  0.34869  0.83566  1.0000
  C   C340      1.0  0.21252  0.32452  0.82779  1.0000
  O   O117      1.0  0.21254  0.29430  0.79100  1.0000
  O   O118      1.0  0.21255  0.32931  0.74869  1.0000
  H   H91       1.0  0.21253  0.37292  0.76923  1.0000
  O   O119      1.0  0.21251  0.39018  0.82177  1.0000
  O   O120      1.0  0.21250  0.35499  0.86434  1.0000
  H   H92       1.0  0.21251  0.31144  0.84360  1.0000
  Cu  Cu6       1.0  0.21249  0.39061  0.86472  1.0000
  C   C341      1.0  0.67229  0.20955  0.77737  1.0000
  C   C342      1.0  0.68998  0.20955  0.79871  1.0000
  C   C343      1.0  0.68354  0.20952  0.82788  1.0000
  C   C344      1.0  0.65939  0.20950  0.83579  1.0000
  C   C345      1.0  0.64162  0.20950  0.81441  1.0000
  C   C346      1.0  0.64813  0.20953  0.78524  1.0000
  O   O121      1.0  0.67860  0.20958  0.74875  1.0000
  O   O122      1.0  0.71367  0.20957  0.79100  1.0000
  H   H93       1.0  0.69667  0.20952  0.84364  1.0000
  O   O123      1.0  0.65314  0.20947  0.86448  1.0000
  O   O124      1.0  0.61785  0.20948  0.82202  1.0000
  H   H94       1.0  0.63502  0.20953  0.76945  1.0000
  Cu  Cu7       1.0  0.61755  0.20945  0.86501  1.0000
  C   C347      1.0  0.79829  0.66932  0.77736  1.0000
  C   C348      1.0  0.79829  0.68702  0.79869  1.0000
  C   C349      1.0  0.79831  0.68058  0.82787  1.0000
  C   C350      1.0  0.79832  0.65643  0.83578  1.0000
  C   C351      1.0  0.79832  0.63866  0.81440  1.0000
  C   C352      1.0  0.79831  0.64516  0.78523  1.0000
  O   O125      1.0  0.79828  0.67564  0.74874  1.0000
  O   O126      1.0  0.79828  0.71070  0.79097  1.0000
  H   H95       1.0  0.79831  0.69371  0.84362  1.0000
  O   O127      1.0  0.79834  0.65018  0.86447  1.0000
  O   O128      1.0  0.79834  0.61490  0.82202  1.0000
  H   H96       1.0  0.79831  0.63206  0.76944  1.0000
  Cu  Cu8       1.0  0.79836  0.61460  0.86501  1.0000
  C   C353      1.0  0.68988  0.79535  0.79861  1.0000
  C   C354      1.0  0.67220  0.79535  0.77727  1.0000
  C   C355      1.0  0.64803  0.79535  0.78505  1.0000
  C   C356      1.0  0.64149  0.79535  0.81420  1.0000
  C   C357      1.0  0.65921  0.79535  0.83564  1.0000
  C   C358      1.0  0.68338  0.79534  0.82777  1.0000
  O   O129      1.0  0.71360  0.79535  0.79097  1.0000
  O   O130      1.0  0.67858  0.79535  0.74867  1.0000
  H   H97       1.0  0.63497  0.79535  0.76922  1.0000
  O   O131      1.0  0.61772  0.79535  0.82176  1.0000
  O   O132      1.0  0.65292  0.79534  0.86432  1.0000
  H   H98       1.0  0.69647  0.79534  0.84358  1.0000
  Cu  Cu9       1.0  0.61729  0.79535  0.86471  1.0000
  C   C359      1.0  0.21259  0.66931  0.77732  1.0000
  C   C360      1.0  0.21258  0.68701  0.79865  1.0000
  C   C361      1.0  0.21260  0.68057  0.82782  1.0000
  C   C362      1.0  0.21262  0.65642  0.83574  1.0000
  C   C363      1.0  0.21262  0.63865  0.81436  1.0000
  C   C364      1.0  0.21261  0.64516  0.78519  1.0000
  O   O133      1.0  0.21257  0.67563  0.74869  1.0000
  O   O134      1.0  0.21256  0.71069  0.79093  1.0000
  H   H99       1.0  0.21259  0.69370  0.84358  1.0000
  O   O135      1.0  0.21263  0.65017  0.86442  1.0000
  O   O136      1.0  0.21264  0.61489  0.82197  1.0000
  H   H100      1.0  0.21261  0.63205  0.76940  1.0000
  Cu  Cu10      1.0  0.21266  0.61459  0.86496  1.0000
  C   C365      1.0  0.33855  0.20959  0.77735  1.0000
  C   C366      1.0  0.32085  0.20960  0.79869  1.0000
  C   C367      1.0  0.32730  0.20961  0.82786  1.0000
  C   C368      1.0  0.35145  0.20961  0.83577  1.0000
  C   C369      1.0  0.36922  0.20961  0.81439  1.0000
  C   C370      1.0  0.36271  0.20960  0.78522  1.0000
  O   O137      1.0  0.33223  0.20958  0.74873  1.0000
  O   O138      1.0  0.29717  0.20959  0.79097  1.0000
  H   H101      1.0  0.31417  0.20961  0.84362  1.0000
  O   O139      1.0  0.35770  0.20962  0.86445  1.0000
  O   O140      1.0  0.39298  0.20962  0.82200  1.0000
  H   H102      1.0  0.37581  0.20959  0.76943  1.0000
  Cu  Cu11      1.0  0.39329  0.20963  0.86499  1.0000
  C   C371      1.0  0.79828  0.33560  0.77737  1.0000
  C   C372      1.0  0.79829  0.31791  0.79871  1.0000
  C   C373      1.0  0.79827  0.32436  0.82788  1.0000
  C   C374      1.0  0.79825  0.34851  0.83578  1.0000
  C   C375      1.0  0.79824  0.36628  0.81439  1.0000
  C   C376      1.0  0.79826  0.35976  0.78523  1.0000
  O   O141      1.0  0.79830  0.32928  0.74875  1.0000
  O   O142      1.0  0.79831  0.29423  0.79100  1.0000
  H   H103      1.0  0.79828  0.31124  0.84364  1.0000
  O   O143      1.0  0.79823  0.35477  0.86446  1.0000
  O   O144      1.0  0.79821  0.39004  0.82200  1.0000
  H   H104      1.0  0.79825  0.37286  0.76943  1.0000
  Cu  Cu12      1.0  0.79820  0.39036  0.86499  1.0000
  C   C377      1.0  0.68992  0.20958  0.20141  1.0000
  C   C378      1.0  0.67224  0.20958  0.22276  1.0000
  C   C379      1.0  0.64807  0.20959  0.21499  1.0000
  C   C380      1.0  0.64152  0.20960  0.18584  1.0000
  C   C381      1.0  0.65924  0.20960  0.16440  1.0000
  C   C382      1.0  0.68341  0.20960  0.17225  1.0000
  O   O145      1.0  0.71364  0.20958  0.20904  1.0000
  O   O146      1.0  0.67863  0.20957  0.25135  1.0000
  H   H105      1.0  0.63501  0.20958  0.23083  1.0000
  O   O147      1.0  0.61775  0.20961  0.17830  1.0000
  O   O148      1.0  0.65294  0.20962  0.13571  1.0000
  H   H106      1.0  0.69649  0.20960  0.15644  1.0000
  Cu  Cu13      1.0  0.61731  0.20962  0.13534  1.0000
  C   C383      1.0  0.79826  0.68695  0.20144  1.0000
  C   C384      1.0  0.79825  0.66927  0.22278  1.0000
  C   C385      1.0  0.79823  0.64510  0.21500  1.0000
  C   C386      1.0  0.79822  0.63856  0.18585  1.0000
  C   C387      1.0  0.79822  0.65628  0.16441  1.0000
  C   C388      1.0  0.79824  0.68044  0.17228  1.0000
  O   O149      1.0  0.79828  0.71067  0.20907  1.0000
  O   O150      1.0  0.79827  0.67565  0.25138  1.0000
  H   H107      1.0  0.79823  0.63204  0.23084  1.0000
  O   O151      1.0  0.79819  0.61479  0.17830  1.0000
  O   O152      1.0  0.79821  0.64998  0.13573  1.0000
  H   H108      1.0  0.79825  0.69353  0.15647  1.0000
  Cu  Cu14      1.0  0.79818  0.61436  0.13535  1.0000
  C   C389      1.0  0.32091  0.79538  0.20145  1.0000
  C   C390      1.0  0.33859  0.79538  0.22280  1.0000
  C   C391      1.0  0.36276  0.79538  0.21502  1.0000
  C   C392      1.0  0.36932  0.79537  0.18587  1.0000
  C   C393      1.0  0.35160  0.79537  0.16443  1.0000
  C   C394      1.0  0.32743  0.79538  0.17229  1.0000
  O   O153      1.0  0.29720  0.79538  0.20907  1.0000
  O   O154      1.0  0.33220  0.79538  0.25139  1.0000
  H   H109      1.0  0.37582  0.79537  0.23086  1.0000
  O   O155      1.0  0.39308  0.79537  0.17833  1.0000
  O   O156      1.0  0.35790  0.79537  0.13575  1.0000
  H   H110      1.0  0.31434  0.79538  0.15648  1.0000
  Cu  Cu15      1.0  0.39353  0.79536  0.13538  1.0000
  C   C395      1.0  0.21257  0.33565  0.22272  1.0000
  C   C396      1.0  0.21257  0.31796  0.20139  1.0000
  C   C397      1.0  0.21259  0.32439  0.17221  1.0000
  C   C398      1.0  0.21261  0.34854  0.16430  1.0000
  C   C399      1.0  0.21261  0.36631  0.18568  1.0000
  C   C400      1.0  0.21259  0.35981  0.21485  1.0000
  O   O157      1.0  0.21255  0.32934  0.25134  1.0000
  O   O158      1.0  0.21255  0.29427  0.20911  1.0000
  H   H111      1.0  0.21259  0.31126  0.15646  1.0000
  O   O159      1.0  0.21263  0.35479  0.13561  1.0000
  O   O160      1.0  0.21263  0.39008  0.17806  1.0000
  H   H112      1.0  0.21259  0.37291  0.23063  1.0000
  Cu  Cu16      1.0  0.21265  0.39037  0.13507  1.0000
  C   C401      1.0  0.82090  0.70956  0.70144  1.0000
  C   C402      1.0  0.83859  0.70956  0.72278  1.0000
  C   C403      1.0  0.86276  0.70954  0.71500  1.0000
  C   C404      1.0  0.86930  0.70952  0.68585  1.0000
  C   C405      1.0  0.85158  0.70952  0.66441  1.0000
  C   C406      1.0  0.82741  0.70954  0.67228  1.0000
  O   O161      1.0  0.79719  0.70958  0.70907  1.0000
  O   O162      1.0  0.83221  0.70958  0.75137  1.0000
  H   H113      1.0  0.87582  0.70954  0.73084  1.0000
  O   O163      1.0  0.89307  0.70950  0.67830  1.0000
  O   O164      1.0  0.85788  0.70949  0.63573  1.0000
  H   H114      1.0  0.81432  0.70954  0.65647  1.0000
  Cu  Cu17      1.0  0.89350  0.70947  0.63534  1.0000
  C   C407      1.0  0.29829  0.83565  0.72273  1.0000
  C   C408      1.0  0.29830  0.81795  0.70139  1.0000
  C   C409      1.0  0.29831  0.82440  0.67222  1.0000
  C   C410      1.0  0.29832  0.84855  0.66431  1.0000
  C   C411      1.0  0.29831  0.86631  0.68570  1.0000
  C   C412      1.0  0.29829  0.85980  0.71487  1.0000
  O   O165      1.0  0.29827  0.82932  0.75135  1.0000
  O   O166      1.0  0.29829  0.79427  0.70911  1.0000
  H   H115      1.0  0.29832  0.81127  0.65646  1.0000
  O   O167      1.0  0.29834  0.85480  0.63563  1.0000
  O   O168      1.0  0.29832  0.89008  0.67809  1.0000
  H   H116      1.0  0.29829  0.87290  0.73066  1.0000
  Cu  Cu18      1.0  0.29834  0.89039  0.63510  1.0000
  C   C413      1.0  0.17228  0.29542  0.72271  1.0000
  C   C414      1.0  0.18997  0.29541  0.70137  1.0000
  C   C415      1.0  0.18353  0.29543  0.67220  1.0000
  C   C416      1.0  0.15938  0.29546  0.66429  1.0000
  C   C417      1.0  0.14161  0.29546  0.68567  1.0000
  C   C418      1.0  0.14812  0.29544  0.71484  1.0000
  O   O169      1.0  0.17859  0.29539  0.75133  1.0000
  O   O170      1.0  0.21366  0.29539  0.70909  1.0000
  H   H117      1.0  0.19666  0.29543  0.65644  1.0000
  O   O171      1.0  0.15313  0.29548  0.63560  1.0000
  O   O172      1.0  0.11785  0.29549  0.67806  1.0000
  H   H118      1.0  0.13501  0.29544  0.73063  1.0000
  Cu  Cu19      1.0  0.11754  0.29551  0.63506  1.0000
  C   C419      1.0  0.71254  0.18696  0.70145  1.0000
  C   C420      1.0  0.71254  0.16928  0.72280  1.0000
  C   C421      1.0  0.71253  0.14511  0.71503  1.0000
  C   C422      1.0  0.71251  0.13856  0.68588  1.0000
  C   C423      1.0  0.71251  0.15628  0.66444  1.0000
  C   C424      1.0  0.71253  0.18044  0.67230  1.0000
  O   O173      1.0  0.71256  0.21067  0.70909  1.0000
  O   O174      1.0  0.71256  0.17566  0.75139  1.0000
  H   H119      1.0  0.71253  0.13205  0.73086  1.0000
  O   O175      1.0  0.71250  0.11479  0.67833  1.0000
  O   O176      1.0  0.71250  0.14998  0.63575  1.0000
  H   H120      1.0  0.71252  0.19353  0.65649  1.0000
  Cu  Cu20      1.0  0.71248  0.11436  0.63538  1.0000
  C   C425      1.0  0.82090  0.29541  0.29865  1.0000
  C   C426      1.0  0.83858  0.29541  0.27730  1.0000
  C   C427      1.0  0.86275  0.29544  0.28507  1.0000
  C   C428      1.0  0.86931  0.29546  0.31422  1.0000
  C   C429      1.0  0.85159  0.29545  0.33566  1.0000
  C   C430      1.0  0.82742  0.29543  0.32781  1.0000
  O   O177      1.0  0.79718  0.29538  0.29103  1.0000
  O   O178      1.0  0.83218  0.29539  0.24871  1.0000
  H   H121      1.0  0.87581  0.29544  0.26922  1.0000
  O   O179      1.0  0.89307  0.29548  0.32176  1.0000
  O   O180      1.0  0.85790  0.29548  0.36434  1.0000
  H   H122      1.0  0.81434  0.29542  0.34362  1.0000
  Cu  Cu21      1.0  0.89352  0.29551  0.36471  1.0000
  C   C431      1.0  0.71254  0.81801  0.29861  1.0000
  C   C432      1.0  0.71254  0.83570  0.27727  1.0000
  C   C433      1.0  0.71253  0.85987  0.28505  1.0000
  C   C434      1.0  0.71251  0.86641  0.31420  1.0000
  C   C435      1.0  0.71251  0.84869  0.33564  1.0000
  C   C436      1.0  0.71252  0.82452  0.32777  1.0000
  O   O181      1.0  0.71255  0.79430  0.29098  1.0000
  O   O182      1.0  0.71256  0.82931  0.24868  1.0000
  H   H123      1.0  0.71254  0.87293  0.26921  1.0000
  O   O183      1.0  0.71250  0.89017  0.32175  1.0000
  O   O184      1.0  0.71249  0.85498  0.36432  1.0000
  H   H124      1.0  0.71251  0.81143  0.34358  1.0000
  Cu  Cu22      1.0  0.71248  0.89061  0.36471  1.0000
  C   C437      1.0  0.18988  0.70959  0.29861  1.0000
  C   C438      1.0  0.17220  0.70959  0.27726  1.0000
  C   C439      1.0  0.14803  0.70957  0.28503  1.0000
  C   C440      1.0  0.14148  0.70954  0.31418  1.0000
  C   C441      1.0  0.15920  0.70954  0.33563  1.0000
  C   C442      1.0  0.18337  0.70957  0.32777  1.0000
  O   O185      1.0  0.21360  0.70962  0.29098  1.0000
  O   O186      1.0  0.17859  0.70962  0.24867  1.0000
  H   H125      1.0  0.13497  0.70957  0.26919  1.0000
  O   O187      1.0  0.11771  0.70952  0.32173  1.0000
  O   O188      1.0  0.15289  0.70952  0.36431  1.0000
  H   H126      1.0  0.19645  0.70957  0.34358  1.0000
  Cu  Cu23      1.0  0.11727  0.70949  0.36468  1.0000
  C   C443      1.0  0.29833  0.16936  0.27740  1.0000
  C   C444      1.0  0.29834  0.18705  0.29874  1.0000
  C   C445      1.0  0.29835  0.18061  0.32791  1.0000
  C   C446      1.0  0.29835  0.15646  0.33581  1.0000
  C   C447      1.0  0.29835  0.13869  0.31443  1.0000
  C   C448      1.0  0.29834  0.14521  0.28526  1.0000
  O   O189      1.0  0.29832  0.17569  0.24878  1.0000
  O   O190      1.0  0.29834  0.21074  0.29103  1.0000
  H   H127      1.0  0.29835  0.19374  0.34367  1.0000
  O   O191      1.0  0.29836  0.15021  0.36450  1.0000
  O   O192      1.0  0.29835  0.11493  0.32204  1.0000
  H   H128      1.0  0.29834  0.13210  0.26947  1.0000
  Cu  Cu24      1.0  0.29837  0.11462  0.36503  1.0000
  C   C449      1.0  0.18992  0.29538  0.29865  1.0000
  C   C450      1.0  0.17224  0.29538  0.27730  1.0000
  C   C451      1.0  0.14807  0.29537  0.28508  1.0000
  C   C452      1.0  0.14152  0.29536  0.31423  1.0000
  C   C453      1.0  0.15924  0.29537  0.33567  1.0000
  C   C454      1.0  0.18341  0.29537  0.32781  1.0000
  O   O193      1.0  0.21364  0.29539  0.29101  1.0000
  O   O194      1.0  0.17862  0.29539  0.24871  1.0000
  H   H129      1.0  0.13501  0.29537  0.26924  1.0000
  O   O195      1.0  0.11775  0.29535  0.32178  1.0000
  O   O196      1.0  0.15294  0.29536  0.36435  1.0000
  H   H130      1.0  0.19650  0.29538  0.34362  1.0000
  Cu  Cu25      1.0  0.11732  0.29535  0.36473  1.0000
  C   C455      1.0  0.71258  0.16931  0.27733  1.0000
  C   C456      1.0  0.71257  0.18701  0.29866  1.0000
  C   C457      1.0  0.71259  0.18057  0.32783  1.0000
  C   C458      1.0  0.71261  0.15642  0.33575  1.0000
  C   C459      1.0  0.71262  0.13865  0.31437  1.0000
  C   C460      1.0  0.71261  0.14516  0.28520  1.0000
  O   O197      1.0  0.71257  0.17563  0.24871  1.0000
  O   O198      1.0  0.71255  0.21069  0.29095  1.0000
  H   H131      1.0  0.71258  0.19370  0.34359  1.0000
  O   O199      1.0  0.71263  0.15017  0.36443  1.0000
  O   O200      1.0  0.71264  0.11489  0.32198  1.0000
  H   H132      1.0  0.71261  0.13205  0.26941  1.0000
  Cu  Cu26      1.0  0.71266  0.11458  0.36497  1.0000
  C   C461      1.0  0.83854  0.70959  0.27736  1.0000
  C   C462      1.0  0.82085  0.70959  0.29870  1.0000
  C   C463      1.0  0.82729  0.70961  0.32787  1.0000
  C   C464      1.0  0.85144  0.70962  0.33578  1.0000
  C   C465      1.0  0.86921  0.70961  0.31440  1.0000
  C   C466      1.0  0.86270  0.70960  0.28523  1.0000
  O   O201      1.0  0.83223  0.70957  0.24874  1.0000
  O   O202      1.0  0.79716  0.70958  0.29098  1.0000
  H   H133      1.0  0.81416  0.70961  0.34362  1.0000
  O   O203      1.0  0.85768  0.70964  0.36447  1.0000
  O   O204      1.0  0.89297  0.70963  0.32201  1.0000
  H   H134      1.0  0.87581  0.70959  0.26944  1.0000
  Cu  Cu27      1.0  0.89327  0.70965  0.36501  1.0000
  C   C467      1.0  0.29826  0.83564  0.27735  1.0000
  C   C468      1.0  0.29827  0.81795  0.29869  1.0000
  C   C469      1.0  0.29825  0.82439  0.32786  1.0000
  C   C470      1.0  0.29822  0.84854  0.33577  1.0000
  C   C471      1.0  0.29822  0.86630  0.31438  1.0000
  C   C472      1.0  0.29824  0.85980  0.28522  1.0000
  O   O205      1.0  0.29828  0.82932  0.24873  1.0000
  O   O206      1.0  0.29829  0.79426  0.29098  1.0000
  H   H135      1.0  0.29825  0.81126  0.34362  1.0000
  O   O207      1.0  0.29821  0.85479  0.36445  1.0000
  O   O208      1.0  0.29820  0.89007  0.32199  1.0000
  H   H136      1.0  0.29824  0.87290  0.26942  1.0000
  Cu  Cu28      1.0  0.29818  0.89038  0.36499  1.0000
  C   C473      1.0  0.18993  0.70958  0.70141  1.0000
  C   C474      1.0  0.17225  0.70958  0.72276  1.0000
  C   C475      1.0  0.14808  0.70959  0.71500  1.0000
  C   C476      1.0  0.14152  0.70961  0.68585  1.0000
  C   C477      1.0  0.15924  0.70961  0.66440  1.0000
  C   C478      1.0  0.18341  0.70960  0.67225  1.0000
  O   O209      1.0  0.21365  0.70957  0.70903  1.0000
  O   O210      1.0  0.17865  0.70957  0.75135  1.0000
  H   H137      1.0  0.13502  0.70959  0.73084  1.0000
  O   O211      1.0  0.11775  0.70962  0.67831  1.0000
  O   O212      1.0  0.15293  0.70963  0.63572  1.0000
  H   H138      1.0  0.19649  0.70960  0.65644  1.0000
  Cu  Cu29      1.0  0.11730  0.70964  0.63536  1.0000
  C   C479      1.0  0.29827  0.18696  0.70144  1.0000
  C   C480      1.0  0.29826  0.16928  0.72279  1.0000
  C   C481      1.0  0.29824  0.14511  0.71501  1.0000
  C   C482      1.0  0.29822  0.13856  0.68586  1.0000
  C   C483      1.0  0.29822  0.15628  0.66442  1.0000
  C   C484      1.0  0.29825  0.18045  0.67228  1.0000
  O   O213      1.0  0.29829  0.21068  0.70907  1.0000
  O   O214      1.0  0.29828  0.17567  0.75138  1.0000
  H   H139      1.0  0.29823  0.13205  0.73085  1.0000
  O   O215      1.0  0.29820  0.11480  0.67831  1.0000
  O   O216      1.0  0.29821  0.14998  0.63574  1.0000
  H   H140      1.0  0.29825  0.19354  0.65647  1.0000
  Cu  Cu30      1.0  0.29818  0.11436  0.63536  1.0000
  C   C485      1.0  0.82094  0.29534  0.70146  1.0000
  C   C486      1.0  0.83862  0.29534  0.72281  1.0000
  C   C487      1.0  0.86279  0.29534  0.71504  1.0000
  C   C488      1.0  0.86934  0.29533  0.68589  1.0000
  C   C489      1.0  0.85162  0.29533  0.66445  1.0000
  C   C490      1.0  0.82745  0.29533  0.67231  1.0000
  O   O217      1.0  0.79722  0.29534  0.70909  1.0000
  O   O218      1.0  0.83223  0.29535  0.75140  1.0000
  H   H141      1.0  0.87585  0.29534  0.73088  1.0000
  O   O219      1.0  0.89311  0.29533  0.67834  1.0000
  O   O220      1.0  0.85792  0.29532  0.63576  1.0000
  H   H142      1.0  0.81437  0.29533  0.65649  1.0000
  Cu  Cu31      1.0  0.89355  0.29532  0.63539  1.0000
  C   C491      1.0  0.71254  0.83561  0.72269  1.0000
  C   C492      1.0  0.71253  0.81792  0.70135  1.0000
  C   C493      1.0  0.71255  0.82436  0.67218  1.0000
  C   C494      1.0  0.71258  0.84851  0.66427  1.0000
  C   C495      1.0  0.71258  0.86628  0.68565  1.0000
  C   C496      1.0  0.71256  0.85977  0.71482  1.0000
  O   O221      1.0  0.71252  0.82929  0.75131  1.0000
  O   O222      1.0  0.71250  0.79423  0.70906  1.0000
  H   H143      1.0  0.71255  0.81123  0.65642  1.0000
  O   O223      1.0  0.71260  0.85476  0.63558  1.0000
  O   O224      1.0  0.71261  0.89004  0.67804  1.0000
  H   H144      1.0  0.71257  0.87287  0.73061  1.0000
  Cu  Cu32      1.0  0.71263  0.89035  0.63505  1.0000
