data_image0
_chemical_formula_structural       C26H7O2H2O2HC4HO2HC26H7O2H2O2HC4HO2HC26H7O2H2O2HC4HO2HC26H7O2H2O2HC4HO2HC26H7O2H2O2HC4HO2HC26H7O2H2O2HC4HO2HC26H7O2H2O2HC4HO2HC26H7O2H2O2HC4HO2HC26H7O2H2O2HC4HO2HC26H7O2H2O2HC4HO2HC26H7O2H2O2HC4HO2HC26H7O2H2O2HC4HO2HC26H7O2H2O2HC4HO2HC26H7O2H2O2HC4HO2HC26H7O2H2O2HC4HO2HC26H7O2H2O2HC4HO2HC26H7O2H2O2HC4HO2HC26H7O2H2O2HC4HO2HC26H7O2H2O2HC4HO2HC26H7O2H2O2HC4HO2HC7NCNCNC3NCNC11NCNC7NH8C16HO2H2O2H2O2H2O2HNiC7NCNCNC3NCNC11NCNC7NH8C16HO2H2O2H2O2H2O2HNiC7NCNCNC3NCNC11NCNC7NH8C16HO2H2O2H2O2H2O2HNiZn36
_chemical_formula_sum              "C744 H288 O144 N24 Ni3 Zn36"
_cell_length_a       76.6581
_cell_length_b       76.8072
_cell_length_c       76.7328
_cell_angle_alpha    89.9992
_cell_angle_beta     90.0008
_cell_angle_gamma    90.0008

_space_group_name_H-M_alt    "P 1"
_space_group_IT_number       1

loop_
  _space_group_symop_operation_xyz
  'x, y, z'

loop_
  _atom_site_type_symbol
  _atom_site_label
  _atom_site_symmetry_multiplicity
  _atom_site_fract_x
  _atom_site_fract_y
  _atom_site_fract_z
  _atom_site_occupancy
  C   C1        1.0  0.27415  0.28875  0.30269  1.0000
  C   C2        1.0  0.28835  0.27457  0.30266  1.0000
  C   C3        1.0  0.30254  0.27458  0.28846  1.0000
  C   C4        1.0  0.30254  0.28876  0.27428  1.0000
  C   C5        1.0  0.28834  0.30295  0.27431  1.0000
  C   C6        1.0  0.27414  0.30294  0.28851  1.0000
  C   C7        1.0  0.31673  0.28877  0.26008  1.0000
  C   C8        1.0  0.33093  0.27460  0.26005  1.0000
  C   C9        1.0  0.33094  0.26040  0.27423  1.0000
  C   C10       1.0  0.31675  0.26039  0.28843  1.0000
  C   C11       1.0  0.25996  0.28874  0.31690  1.0000
  C   C12       1.0  0.25997  0.27455  0.33107  1.0000
  C   C13       1.0  0.27417  0.26037  0.33105  1.0000
  C   C14       1.0  0.28836  0.26038  0.31684  1.0000
  C   C15       1.0  0.25994  0.31713  0.28853  1.0000
  C   C16       1.0  0.25994  0.33131  0.27436  1.0000
  C   C17       1.0  0.27413  0.33132  0.26016  1.0000
  C   C18       1.0  0.28833  0.31714  0.26013  1.0000
  C   C19       1.0  0.27412  0.34551  0.24598  1.0000
  C   C20       1.0  0.25992  0.35970  0.24600  1.0000
  C   C21       1.0  0.24572  0.35969  0.26020  1.0000
  C   C22       1.0  0.24573  0.34549  0.27438  1.0000
  C   C23       1.0  0.34514  0.24622  0.27421  1.0000
  C   C24       1.0  0.35933  0.24623  0.26000  1.0000
  C   C25       1.0  0.35932  0.26042  0.24582  1.0000
  C   C26       1.0  0.34512  0.27461  0.24585  1.0000
  H   H1        1.0  0.31672  0.29929  0.24958  1.0000
  H   H2        1.0  0.31675  0.24989  0.29893  1.0000
  H   H3        1.0  0.24945  0.29924  0.31691  1.0000
  H   H4        1.0  0.29887  0.24988  0.31682  1.0000
  H   H5        1.0  0.24944  0.31712  0.29905  1.0000
  H   H6        1.0  0.29883  0.31715  0.24961  1.0000
  H   H7        1.0  0.28463  0.34552  0.23546  1.0000
  O   O1        1.0  0.25991  0.37352  0.23219  1.0000
  O   O2        1.0  0.23189  0.37350  0.26023  1.0000
  H   H8        1.0  0.23523  0.34549  0.28490  1.0000
  H   H9        1.0  0.34515  0.23572  0.28470  1.0000
  O   O3        1.0  0.37317  0.23241  0.25998  1.0000
  O   O4        1.0  0.37315  0.26043  0.23199  1.0000
  H   H10       1.0  0.34512  0.28511  0.23535  1.0000
  C   C27       1.0  0.27418  0.24617  0.34523  1.0000
  C   C28       1.0  0.25999  0.24616  0.35943  1.0000
  C   C29       1.0  0.24578  0.26035  0.35945  1.0000
  C   C30       1.0  0.24577  0.27454  0.34527  1.0000
  H   H11       1.0  0.28469  0.23568  0.34521  1.0000
  O   O5        1.0  0.25999  0.23234  0.37324  1.0000
  O   O6        1.0  0.23196  0.26034  0.37329  1.0000
  H   H12       1.0  0.23526  0.28504  0.34529  1.0000
  C   C31       1.0  0.72589  0.30295  0.28851  1.0000
  C   C32       1.0  0.71170  0.30296  0.27432  1.0000
  C   C33       1.0  0.69750  0.28878  0.27429  1.0000
  C   C34       1.0  0.69749  0.27459  0.28846  1.0000
  C   C35       1.0  0.71168  0.27458  0.30267  1.0000
  C   C36       1.0  0.72589  0.28876  0.30269  1.0000
  C   C37       1.0  0.68329  0.26041  0.28843  1.0000
  C   C38       1.0  0.66910  0.26041  0.27424  1.0000
  C   C39       1.0  0.66911  0.27460  0.26006  1.0000
  C   C40       1.0  0.68331  0.28879  0.26008  1.0000
  C   C41       1.0  0.74009  0.31713  0.28854  1.0000
  C   C42       1.0  0.74010  0.33132  0.27437  1.0000
  C   C43       1.0  0.72591  0.33133  0.26016  1.0000
  C   C44       1.0  0.71171  0.31715  0.26013  1.0000
  C   C45       1.0  0.74008  0.28875  0.31690  1.0000
  C   C46       1.0  0.74007  0.27456  0.33107  1.0000
  C   C47       1.0  0.72587  0.26038  0.33105  1.0000
  C   C48       1.0  0.71168  0.26038  0.31685  1.0000
  C   C49       1.0  0.72586  0.24619  0.34523  1.0000
  C   C50       1.0  0.74005  0.24618  0.35944  1.0000
  C   C51       1.0  0.75426  0.26036  0.35946  1.0000
  C   C52       1.0  0.75426  0.27455  0.34528  1.0000
  C   C53       1.0  0.65491  0.27461  0.24585  1.0000
  C   C54       1.0  0.64071  0.26043  0.24582  1.0000
  C   C55       1.0  0.64071  0.24624  0.26000  1.0000
  C   C56       1.0  0.65490  0.24623  0.27421  1.0000
  H   H13       1.0  0.68329  0.24990  0.29894  1.0000
  H   H14       1.0  0.68332  0.29929  0.24959  1.0000
  H   H15       1.0  0.75060  0.31712  0.29906  1.0000
  H   H16       1.0  0.70121  0.31716  0.24962  1.0000
  H   H17       1.0  0.75059  0.29925  0.31692  1.0000
  H   H18       1.0  0.70117  0.24989  0.31683  1.0000
  H   H19       1.0  0.71535  0.23569  0.34521  1.0000
  O   O7        1.0  0.74005  0.23235  0.37325  1.0000
  O   O8        1.0  0.76808  0.26035  0.37330  1.0000
  H   H20       1.0  0.76477  0.28505  0.34530  1.0000
  H   H21       1.0  0.65492  0.28512  0.23536  1.0000
  O   O9        1.0  0.62689  0.26044  0.23199  1.0000
  O   O10       1.0  0.62687  0.23243  0.25998  1.0000
  H   H22       1.0  0.65489  0.23573  0.28470  1.0000
  C   C57       1.0  0.72592  0.34552  0.24598  1.0000
  C   C58       1.0  0.74012  0.35971  0.24600  1.0000
  C   C59       1.0  0.75431  0.35970  0.26021  1.0000
  C   C60       1.0  0.75431  0.34550  0.27439  1.0000
  H   H23       1.0  0.71541  0.34553  0.23547  1.0000
  O   O11       1.0  0.74013  0.37353  0.23219  1.0000
  O   O12       1.0  0.76814  0.37351  0.26024  1.0000
  H   H24       1.0  0.76481  0.34550  0.28491  1.0000
  C   C61       1.0  0.69749  0.72580  0.28844  1.0000
  C   C62       1.0  0.69750  0.71161  0.27427  1.0000
  C   C63       1.0  0.71170  0.69743  0.27430  1.0000
  C   C64       1.0  0.72589  0.69743  0.28850  1.0000
  C   C65       1.0  0.72588  0.71163  0.30268  1.0000
  C   C66       1.0  0.71168  0.72581  0.30265  1.0000
  C   C67       1.0  0.74009  0.68325  0.28853  1.0000
  C   C68       1.0  0.74010  0.66906  0.27436  1.0000
  C   C69       1.0  0.72591  0.66905  0.26015  1.0000
  C   C70       1.0  0.71171  0.68323  0.26012  1.0000
  C   C71       1.0  0.68328  0.73998  0.28842  1.0000
  C   C72       1.0  0.66910  0.73997  0.27422  1.0000
  C   C73       1.0  0.66910  0.72578  0.26004  1.0000
  C   C74       1.0  0.68331  0.71160  0.26007  1.0000
  C   C75       1.0  0.71167  0.74000  0.31683  1.0000
  C   C76       1.0  0.72586  0.74001  0.33103  1.0000
  C   C77       1.0  0.74006  0.72583  0.33106  1.0000
  C   C78       1.0  0.74007  0.71164  0.31689  1.0000
  C   C79       1.0  0.75425  0.72584  0.34527  1.0000
  C   C80       1.0  0.75424  0.74003  0.35945  1.0000
  C   C81       1.0  0.74004  0.75421  0.35942  1.0000
  C   C82       1.0  0.72585  0.75420  0.34521  1.0000
  C   C83       1.0  0.72592  0.65486  0.24597  1.0000
  C   C84       1.0  0.74012  0.64068  0.24600  1.0000
  C   C85       1.0  0.75431  0.64069  0.26021  1.0000
  C   C86       1.0  0.75430  0.65488  0.27439  1.0000
  H   H25       1.0  0.75060  0.68326  0.29905  1.0000
  H   H26       1.0  0.70120  0.68323  0.24961  1.0000
  H   H27       1.0  0.68328  0.75049  0.29892  1.0000
  H   H28       1.0  0.68331  0.70109  0.24957  1.0000
  H   H29       1.0  0.70116  0.75050  0.31681  1.0000
  H   H30       1.0  0.75058  0.70114  0.31691  1.0000
  H   H31       1.0  0.76476  0.71534  0.34529  1.0000
  O   O13       1.0  0.76807  0.74004  0.37329  1.0000
  O   O14       1.0  0.74003  0.76803  0.37323  1.0000
  H   H32       1.0  0.71534  0.76470  0.34519  1.0000
  H   H33       1.0  0.71541  0.65485  0.23546  1.0000
  O   O15       1.0  0.74013  0.62685  0.23219  1.0000
  O   O16       1.0  0.76814  0.62688  0.26023  1.0000
  H   H34       1.0  0.76481  0.65489  0.28490  1.0000
  C   C87       1.0  0.65491  0.72577  0.24583  1.0000
  C   C88       1.0  0.64071  0.73995  0.24580  1.0000
  C   C89       1.0  0.64070  0.75414  0.25998  1.0000
  C   C90       1.0  0.65490  0.75415  0.27419  1.0000
  H   H35       1.0  0.65492  0.71526  0.23534  1.0000
  O   O17       1.0  0.62689  0.73994  0.23196  1.0000
  O   O18       1.0  0.62687  0.76795  0.25995  1.0000
  H   H36       1.0  0.65489  0.76466  0.28468  1.0000
  C   C91       1.0  0.30255  0.71160  0.27427  1.0000
  C   C92       1.0  0.30256  0.72579  0.28844  1.0000
  C   C93       1.0  0.28837  0.72580  0.30265  1.0000
  C   C94       1.0  0.27417  0.71162  0.30268  1.0000
  C   C95       1.0  0.27416  0.69743  0.28850  1.0000
  C   C96       1.0  0.28835  0.69742  0.27429  1.0000
  C   C97       1.0  0.25998  0.71163  0.31688  1.0000
  C   C98       1.0  0.25999  0.72582  0.33106  1.0000
  C   C99       1.0  0.27419  0.74000  0.33103  1.0000
  C   C100      1.0  0.28838  0.73999  0.31683  1.0000
  C   C101      1.0  0.31674  0.71160  0.26006  1.0000
  C   C102      1.0  0.33094  0.72577  0.26003  1.0000
  C   C103      1.0  0.33095  0.73996  0.27421  1.0000
  C   C104      1.0  0.31676  0.73997  0.28841  1.0000
  C   C105      1.0  0.28834  0.68323  0.26011  1.0000
  C   C106      1.0  0.27414  0.66905  0.26014  1.0000
  C   C107      1.0  0.25995  0.66906  0.27435  1.0000
  C   C108      1.0  0.25996  0.68324  0.28852  1.0000
  C   C109      1.0  0.24575  0.65488  0.27438  1.0000
  C   C110      1.0  0.24573  0.64068  0.26020  1.0000
  C   C111      1.0  0.25993  0.64067  0.24599  1.0000
  C   C112      1.0  0.27413  0.65486  0.24597  1.0000
  C   C113      1.0  0.27420  0.75420  0.34521  1.0000
  C   C114      1.0  0.26001  0.75421  0.35942  1.0000
  C   C115      1.0  0.24581  0.74002  0.35944  1.0000
  C   C116      1.0  0.24580  0.72583  0.34526  1.0000
  H   H37       1.0  0.24946  0.70113  0.31690  1.0000
  H   H38       1.0  0.29889  0.75049  0.31680  1.0000
  H   H39       1.0  0.31673  0.70108  0.24956  1.0000
  H   H40       1.0  0.31677  0.75048  0.29891  1.0000
  H   H41       1.0  0.29884  0.68322  0.24960  1.0000
  H   H42       1.0  0.24945  0.68325  0.29904  1.0000
  H   H43       1.0  0.23524  0.65488  0.28489  1.0000
  O   O19       1.0  0.23190  0.62687  0.26022  1.0000
  O   O20       1.0  0.25992  0.62685  0.23218  1.0000
  H   H44       1.0  0.28463  0.65485  0.23545  1.0000
  H   H45       1.0  0.28471  0.76469  0.34519  1.0000
  O   O21       1.0  0.26002  0.76803  0.37322  1.0000
  O   O22       1.0  0.23199  0.74003  0.37328  1.0000
  H   H46       1.0  0.23528  0.71533  0.34528  1.0000
  C   C117      1.0  0.34516  0.75415  0.27418  1.0000
  C   C118      1.0  0.35935  0.75414  0.25998  1.0000
  C   C119      1.0  0.35934  0.73995  0.24580  1.0000
  C   C120      1.0  0.34513  0.72576  0.24582  1.0000
  H   H47       1.0  0.34516  0.76465  0.28468  1.0000
  O   O23       1.0  0.37318  0.76795  0.25995  1.0000
  O   O24       1.0  0.37316  0.73994  0.23196  1.0000
  H   H48       1.0  0.34513  0.71526  0.23533  1.0000
  C   C121      1.0  0.27416  0.69742  0.71155  1.0000
  C   C122      1.0  0.28835  0.69741  0.72575  1.0000
  C   C123      1.0  0.30255  0.71159  0.72578  1.0000
  C   C124      1.0  0.30256  0.72578  0.71161  1.0000
  C   C125      1.0  0.28837  0.72579  0.69740  1.0000
  C   C126      1.0  0.27417  0.71161  0.69737  1.0000
  C   C127      1.0  0.31676  0.73996  0.71164  1.0000
  C   C128      1.0  0.33095  0.73995  0.72583  1.0000
  C   C129      1.0  0.33094  0.72576  0.74001  1.0000
  C   C130      1.0  0.31674  0.71158  0.73999  1.0000
  C   C131      1.0  0.25996  0.68324  0.71152  1.0000
  C   C132      1.0  0.25994  0.66905  0.72569  1.0000
  C   C133      1.0  0.27413  0.66904  0.73990  1.0000
  C   C134      1.0  0.28834  0.68322  0.73993  1.0000
  C   C135      1.0  0.25997  0.71162  0.68316  1.0000
  C   C136      1.0  0.25999  0.72581  0.66899  1.0000
  C   C137      1.0  0.27419  0.73999  0.66902  1.0000
  C   C138      1.0  0.28838  0.73998  0.68322  1.0000
  C   C139      1.0  0.27420  0.75418  0.65484  1.0000
  C   C140      1.0  0.26001  0.75420  0.64063  1.0000
  C   C141      1.0  0.24581  0.74001  0.64060  1.0000
  C   C142      1.0  0.24580  0.72582  0.65478  1.0000
  C   C143      1.0  0.34513  0.72575  0.75422  1.0000
  C   C144      1.0  0.35934  0.73993  0.75425  1.0000
  C   C145      1.0  0.35935  0.75412  0.74007  1.0000
  C   C146      1.0  0.34515  0.75413  0.72586  1.0000
  H   H49       1.0  0.31677  0.75047  0.70113  1.0000
  H   H50       1.0  0.31673  0.70108  0.75048  1.0000
  H   H51       1.0  0.24945  0.68325  0.70100  1.0000
  H   H52       1.0  0.29884  0.68321  0.75044  1.0000
  H   H53       1.0  0.24946  0.70112  0.68314  1.0000
  H   H54       1.0  0.29889  0.75048  0.68324  1.0000
  H   H55       1.0  0.28471  0.76468  0.65486  1.0000
  O   O25       1.0  0.26002  0.76802  0.62682  1.0000
  O   O26       1.0  0.23198  0.74002  0.62676  1.0000
  H   H56       1.0  0.23528  0.71532  0.65476  1.0000
  H   H57       1.0  0.34513  0.71524  0.76472  1.0000
  O   O27       1.0  0.37316  0.73992  0.76809  1.0000
  O   O28       1.0  0.37318  0.76794  0.74010  1.0000
  H   H58       1.0  0.34516  0.76464  0.71537  1.0000
  C   C147      1.0  0.27413  0.65484  0.75408  1.0000
  C   C148      1.0  0.25992  0.64066  0.75406  1.0000
  C   C149      1.0  0.24573  0.64067  0.73985  1.0000
  C   C150      1.0  0.24574  0.65487  0.72567  1.0000
  H   H59       1.0  0.28463  0.65484  0.76460  1.0000
  O   O29       1.0  0.25991  0.62684  0.76787  1.0000
  O   O30       1.0  0.23190  0.62686  0.73982  1.0000
  H   H60       1.0  0.23524  0.65487  0.71515  1.0000
  C   C151      1.0  0.30255  0.27457  0.71161  1.0000
  C   C152      1.0  0.30254  0.28876  0.72578  1.0000
  C   C153      1.0  0.28834  0.30294  0.72575  1.0000
  C   C154      1.0  0.27415  0.30294  0.71155  1.0000
  C   C155      1.0  0.27416  0.28874  0.69737  1.0000
  C   C156      1.0  0.28836  0.27456  0.69740  1.0000
  C   C157      1.0  0.25995  0.31712  0.71153  1.0000
  C   C158      1.0  0.25994  0.33131  0.72570  1.0000
  C   C159      1.0  0.27413  0.33132  0.73991  1.0000
  C   C160      1.0  0.28833  0.31714  0.73993  1.0000
  C   C161      1.0  0.31675  0.26039  0.71163  1.0000
  C   C162      1.0  0.33094  0.26040  0.72583  1.0000
  C   C163      1.0  0.33093  0.27459  0.74001  1.0000
  C   C164      1.0  0.31673  0.28877  0.73998  1.0000
  C   C165      1.0  0.28836  0.26037  0.68322  1.0000
  C   C166      1.0  0.27418  0.26037  0.66902  1.0000
  C   C167      1.0  0.25997  0.27455  0.66899  1.0000
  C   C168      1.0  0.25996  0.28873  0.68316  1.0000
  C   C169      1.0  0.24578  0.27454  0.65478  1.0000
  C   C170      1.0  0.24579  0.26034  0.64060  1.0000
  C   C171      1.0  0.25999  0.24616  0.64063  1.0000
  C   C172      1.0  0.27418  0.24617  0.65484  1.0000
  C   C173      1.0  0.27412  0.34551  0.75409  1.0000
  C   C174      1.0  0.25992  0.35969  0.75406  1.0000
  C   C175      1.0  0.24573  0.35968  0.73985  1.0000
  C   C176      1.0  0.24573  0.34549  0.72567  1.0000
  H   H61       1.0  0.24944  0.31711  0.70100  1.0000
  H   H62       1.0  0.29884  0.31714  0.75044  1.0000
  H   H63       1.0  0.31675  0.24988  0.70113  1.0000
  H   H64       1.0  0.31672  0.29928  0.75048  1.0000
  H   H65       1.0  0.29888  0.24987  0.68324  1.0000
  H   H66       1.0  0.24945  0.29923  0.68314  1.0000
  H   H67       1.0  0.23527  0.28503  0.65477  1.0000
  O   O31       1.0  0.23196  0.26033  0.62677  1.0000
  O   O32       1.0  0.26000  0.23234  0.62682  1.0000
  H   H68       1.0  0.28470  0.23567  0.65486  1.0000
  H   H69       1.0  0.28463  0.34551  0.76460  1.0000
  O   O33       1.0  0.25991  0.37351  0.76787  1.0000
  O   O34       1.0  0.23189  0.37349  0.73983  1.0000
  H   H70       1.0  0.23523  0.34548  0.71516  1.0000
  C   C177      1.0  0.34513  0.27460  0.75422  1.0000
  C   C178      1.0  0.35933  0.26042  0.75425  1.0000
  C   C179      1.0  0.35934  0.24623  0.74006  1.0000
  C   C180      1.0  0.34514  0.24622  0.72586  1.0000
  H   H71       1.0  0.34512  0.28511  0.76471  1.0000
  O   O35       1.0  0.37315  0.26043  0.76808  1.0000
  O   O36       1.0  0.37317  0.23241  0.74009  1.0000
  H   H72       1.0  0.34515  0.23571  0.71536  1.0000
  C   C181      1.0  0.69751  0.28876  0.72578  1.0000
  C   C182      1.0  0.69750  0.27458  0.71161  1.0000
  C   C183      1.0  0.71169  0.27457  0.69740  1.0000
  C   C184      1.0  0.72589  0.28874  0.69737  1.0000
  C   C185      1.0  0.72590  0.30294  0.71155  1.0000
  C   C186      1.0  0.71171  0.30295  0.72576  1.0000
  C   C187      1.0  0.74008  0.28874  0.68317  1.0000
  C   C188      1.0  0.74008  0.27455  0.66899  1.0000
  C   C189      1.0  0.72587  0.26037  0.66902  1.0000
  C   C190      1.0  0.71168  0.26038  0.68322  1.0000
  C   C191      1.0  0.68331  0.28877  0.73999  1.0000
  C   C192      1.0  0.66912  0.27460  0.74002  1.0000
  C   C193      1.0  0.66911  0.26040  0.72584  1.0000
  C   C194      1.0  0.68330  0.26039  0.71163  1.0000
  C   C195      1.0  0.71172  0.31714  0.73994  1.0000
  C   C196      1.0  0.72592  0.33132  0.73991  1.0000
  C   C197      1.0  0.74011  0.33131  0.72570  1.0000
  C   C198      1.0  0.74010  0.31712  0.71153  1.0000
  C   C199      1.0  0.75431  0.34549  0.72568  1.0000
  C   C200      1.0  0.75432  0.35969  0.73986  1.0000
  C   C201      1.0  0.74013  0.35970  0.75406  1.0000
  C   C202      1.0  0.72593  0.34551  0.75409  1.0000
  C   C203      1.0  0.72586  0.24617  0.65484  1.0000
  C   C204      1.0  0.74005  0.24616  0.64064  1.0000
  C   C205      1.0  0.75426  0.26035  0.64061  1.0000
  C   C206      1.0  0.75427  0.27454  0.65479  1.0000
  H   H73       1.0  0.75060  0.29924  0.68315  1.0000
  H   H74       1.0  0.70117  0.24988  0.68324  1.0000
  H   H75       1.0  0.68333  0.29929  0.75049  1.0000
  H   H76       1.0  0.68329  0.24989  0.70114  1.0000
  H   H77       1.0  0.70122  0.31715  0.75045  1.0000
  H   H78       1.0  0.75061  0.31712  0.70101  1.0000
  H   H79       1.0  0.76482  0.34549  0.71516  1.0000
  O   O37       1.0  0.76816  0.37350  0.73983  1.0000
  O   O38       1.0  0.74014  0.37352  0.76787  1.0000
  H   H80       1.0  0.71542  0.34552  0.76460  1.0000
  H   H81       1.0  0.71535  0.23568  0.65486  1.0000
  O   O39       1.0  0.74005  0.23234  0.62683  1.0000
  O   O40       1.0  0.76808  0.26034  0.62677  1.0000
  H   H82       1.0  0.76478  0.28504  0.65477  1.0000
  C   C207      1.0  0.65490  0.24622  0.72586  1.0000
  C   C208      1.0  0.64071  0.24623  0.74007  1.0000
  C   C209      1.0  0.64072  0.26042  0.75425  1.0000
  C   C210      1.0  0.65492  0.27461  0.75422  1.0000
  H   H83       1.0  0.65490  0.23572  0.71537  1.0000
  O   O41       1.0  0.62688  0.23242  0.74009  1.0000
  O   O42       1.0  0.62690  0.26043  0.76808  1.0000
  H   H84       1.0  0.65493  0.28511  0.76471  1.0000
  C   C211      1.0  0.72589  0.71163  0.69737  1.0000
  C   C212      1.0  0.71169  0.72580  0.69740  1.0000
  C   C213      1.0  0.69750  0.72579  0.71161  1.0000
  C   C214      1.0  0.69751  0.71160  0.72578  1.0000
  C   C215      1.0  0.71171  0.69742  0.72576  1.0000
  C   C216      1.0  0.72590  0.69743  0.71155  1.0000
  C   C217      1.0  0.68332  0.71159  0.73999  1.0000
  C   C218      1.0  0.66912  0.72577  0.74002  1.0000
  C   C219      1.0  0.66911  0.73996  0.72584  1.0000
  C   C220      1.0  0.68330  0.73997  0.71163  1.0000
  C   C221      1.0  0.74008  0.71164  0.68317  1.0000
  C   C222      1.0  0.74007  0.72582  0.66899  1.0000
  C   C223      1.0  0.72587  0.74000  0.66902  1.0000
  C   C224      1.0  0.71168  0.73999  0.68322  1.0000
  C   C225      1.0  0.74011  0.68325  0.71152  1.0000
  C   C226      1.0  0.74011  0.66906  0.72570  1.0000
  C   C227      1.0  0.72592  0.66905  0.73990  1.0000
  C   C228      1.0  0.71172  0.68322  0.73993  1.0000
  C   C229      1.0  0.72594  0.65486  0.75408  1.0000
  C   C230      1.0  0.74014  0.64067  0.75406  1.0000
  C   C231      1.0  0.75433  0.64068  0.73985  1.0000
  C   C232      1.0  0.75432  0.65488  0.72567  1.0000
  C   C233      1.0  0.65490  0.75415  0.72587  1.0000
  C   C234      1.0  0.64071  0.75414  0.74007  1.0000
  C   C235      1.0  0.64073  0.73994  0.75425  1.0000
  C   C236      1.0  0.65493  0.72576  0.75422  1.0000
  H   H85       1.0  0.68333  0.70108  0.75049  1.0000
  H   H86       1.0  0.68329  0.75048  0.70114  1.0000
  H   H87       1.0  0.75060  0.70113  0.68315  1.0000
  H   H88       1.0  0.70117  0.75049  0.68325  1.0000
  H   H89       1.0  0.75061  0.68325  0.70101  1.0000
  H   H90       1.0  0.70122  0.68322  0.75045  1.0000
  H   H91       1.0  0.71543  0.65485  0.76460  1.0000
  O   O43       1.0  0.74015  0.62685  0.76787  1.0000
  O   O44       1.0  0.76816  0.62687  0.73982  1.0000
  H   H92       1.0  0.76482  0.65489  0.71516  1.0000
  H   H93       1.0  0.65490  0.76465  0.71537  1.0000
  O   O45       1.0  0.62688  0.76795  0.74010  1.0000
  O   O46       1.0  0.62690  0.73993  0.76809  1.0000
  H   H94       1.0  0.65494  0.71525  0.76472  1.0000
  C   C237      1.0  0.72586  0.75420  0.65484  1.0000
  C   C238      1.0  0.74005  0.75421  0.64063  1.0000
  C   C239      1.0  0.75425  0.74003  0.64061  1.0000
  C   C240      1.0  0.75426  0.72583  0.65479  1.0000
  H   H95       1.0  0.71535  0.76469  0.65486  1.0000
  O   O47       1.0  0.74004  0.76803  0.62682  1.0000
  O   O48       1.0  0.76807  0.74004  0.62677  1.0000
  H   H96       1.0  0.76478  0.71534  0.65476  1.0000
  C   C241      1.0  0.18936  0.18988  0.51006  1.0000
  C   C242      1.0  0.18937  0.18989  0.49000  1.0000
  C   C243      1.0  0.20165  0.20218  0.47996  1.0000
  C   C244      1.0  0.21393  0.21448  0.48999  1.0000
  C   C245      1.0  0.21393  0.21448  0.51006  1.0000
  C   C246      1.0  0.20165  0.20218  0.52010  1.0000
  C   C247      1.0  0.22622  0.22677  0.47995  1.0000
  C   C248      1.0  0.22622  0.22677  0.45989  1.0000
  C   C249      1.0  0.21393  0.21448  0.44985  1.0000
  C   C250      1.0  0.20165  0.20218  0.45989  1.0000
  C   C251      1.0  0.17708  0.17759  0.52009  1.0000
  C   C252      1.0  0.16480  0.16530  0.51007  1.0000
  C   C253      1.0  0.16479  0.16530  0.48999  1.0000
  C   C254      1.0  0.17708  0.17759  0.47996  1.0000
  C   C255      1.0  0.20165  0.20218  0.54017  1.0000
  C   C256      1.0  0.21393  0.21448  0.55020  1.0000
  C   C257      1.0  0.22622  0.22677  0.54016  1.0000
  C   C258      1.0  0.22622  0.22677  0.52010  1.0000
  C   C259      1.0  0.23850  0.23907  0.55020  1.0000
  C   C260      1.0  0.23850  0.23907  0.57028  1.0000
  C   C261      1.0  0.22622  0.22677  0.58031  1.0000
  C   C262      1.0  0.21393  0.21448  0.57027  1.0000
  C   C263      1.0  0.21393  0.21448  0.42978  1.0000
  C   C264      1.0  0.22622  0.22677  0.41975  1.0000
  C   C265      1.0  0.23850  0.23907  0.42978  1.0000
  C   C266      1.0  0.23851  0.23907  0.44986  1.0000
  H   H97       1.0  0.23531  0.23588  0.48739  1.0000
  H   H98       1.0  0.19256  0.19308  0.45246  1.0000
  H   H99       1.0  0.17708  0.17759  0.53496  1.0000
  H   H100      1.0  0.17708  0.17759  0.46510  1.0000
  H   H101      1.0  0.19256  0.19308  0.54760  1.0000
  H   H102      1.0  0.23531  0.23588  0.51267  1.0000
  H   H103      1.0  0.24760  0.24817  0.54277  1.0000
  O   O49       1.0  0.25047  0.25104  0.58005  1.0000
  O   O50       1.0  0.22622  0.22677  0.59986  1.0000
  H   H104      1.0  0.20484  0.20537  0.57770  1.0000
  H   H105      1.0  0.20484  0.20538  0.42236  1.0000
  O   O51       1.0  0.22622  0.22677  0.40020  1.0000
  O   O52       1.0  0.25047  0.25105  0.42001  1.0000
  H   H106      1.0  0.24760  0.24817  0.45728  1.0000
  C   C267      1.0  0.15251  0.15300  0.47995  1.0000
  C   C268      1.0  0.14022  0.14070  0.48999  1.0000
  C   C269      1.0  0.14022  0.14070  0.51006  1.0000
  C   C270      1.0  0.15251  0.15300  0.52010  1.0000
  H   H107      1.0  0.15251  0.15300  0.46510  1.0000
  O   O53       1.0  0.12826  0.12873  0.48022  1.0000
  O   O54       1.0  0.12826  0.12873  0.51984  1.0000
  H   H108      1.0  0.15251  0.15300  0.53495  1.0000
  C   C271      1.0  0.78610  0.21448  0.48999  1.0000
  C   C272      1.0  0.79839  0.20219  0.47996  1.0000
  C   C273      1.0  0.81067  0.18989  0.49000  1.0000
  C   C274      1.0  0.81067  0.18989  0.51006  1.0000
  C   C275      1.0  0.79839  0.20219  0.52010  1.0000
  C   C276      1.0  0.78610  0.21448  0.51006  1.0000
  C   C277      1.0  0.82296  0.17760  0.52009  1.0000
  C   C278      1.0  0.83524  0.16530  0.51007  1.0000
  C   C279      1.0  0.83524  0.16530  0.48999  1.0000
  C   C280      1.0  0.82296  0.17760  0.47996  1.0000
  C   C281      1.0  0.77382  0.22678  0.47996  1.0000
  C   C282      1.0  0.77382  0.22678  0.45989  1.0000
  C   C283      1.0  0.78610  0.21448  0.44986  1.0000
  C   C284      1.0  0.79839  0.20219  0.45989  1.0000
  C   C285      1.0  0.77382  0.22678  0.52010  1.0000
  C   C286      1.0  0.77382  0.22678  0.54017  1.0000
  C   C287      1.0  0.78611  0.21448  0.55020  1.0000
  C   C288      1.0  0.79839  0.20219  0.54017  1.0000
  C   C289      1.0  0.78611  0.21448  0.57027  1.0000
  C   C290      1.0  0.77382  0.22678  0.58031  1.0000
  C   C291      1.0  0.76153  0.23907  0.57028  1.0000
  C   C292      1.0  0.76154  0.23907  0.55020  1.0000
  C   C293      1.0  0.84753  0.15301  0.47996  1.0000
  C   C294      1.0  0.85981  0.14071  0.48999  1.0000
  C   C295      1.0  0.85981  0.14071  0.51006  1.0000
  C   C296      1.0  0.84753  0.15301  0.52010  1.0000
  H   H109      1.0  0.82296  0.17760  0.53496  1.0000
  H   H110      1.0  0.82296  0.17760  0.46511  1.0000
  H   H111      1.0  0.76472  0.23588  0.48739  1.0000
  H   H112      1.0  0.80748  0.19309  0.45247  1.0000
  H   H113      1.0  0.76472  0.23588  0.51268  1.0000
  H   H114      1.0  0.80748  0.19309  0.54760  1.0000
  H   H115      1.0  0.79520  0.20538  0.57770  1.0000
  O   O55       1.0  0.77382  0.22678  0.59986  1.0000
  O   O56       1.0  0.74957  0.25105  0.58005  1.0000
  H   H116      1.0  0.75244  0.24817  0.54278  1.0000
  H   H117      1.0  0.84753  0.15301  0.46510  1.0000
  O   O57       1.0  0.87178  0.12873  0.48022  1.0000
  O   O58       1.0  0.87178  0.12874  0.51984  1.0000
  H   H118      1.0  0.84753  0.15301  0.53496  1.0000
  C   C297      1.0  0.78610  0.21448  0.42978  1.0000
  C   C298      1.0  0.77382  0.22678  0.41975  1.0000
  C   C299      1.0  0.76153  0.23908  0.42979  1.0000
  C   C300      1.0  0.76153  0.23908  0.44986  1.0000
  H   H119      1.0  0.79520  0.20538  0.42236  1.0000
  O   O59       1.0  0.77382  0.22678  0.40020  1.0000
  O   O60       1.0  0.74957  0.25105  0.42001  1.0000
  H   H120      1.0  0.75244  0.24818  0.45729  1.0000
  C   C301      1.0  0.78608  0.78591  0.51007  1.0000
  C   C302      1.0  0.79836  0.79820  0.52010  1.0000
  C   C303      1.0  0.81065  0.81050  0.51006  1.0000
  C   C304      1.0  0.81065  0.81050  0.49000  1.0000
  C   C305      1.0  0.79836  0.79821  0.47996  1.0000
  C   C306      1.0  0.78608  0.78591  0.49000  1.0000
  C   C307      1.0  0.82293  0.82280  0.47996  1.0000
  C   C308      1.0  0.83522  0.83509  0.48999  1.0000
  C   C309      1.0  0.83522  0.83509  0.51006  1.0000
  C   C310      1.0  0.82293  0.82280  0.52010  1.0000
  C   C311      1.0  0.77379  0.77362  0.52010  1.0000
  C   C312      1.0  0.77379  0.77361  0.54017  1.0000
  C   C313      1.0  0.78608  0.78591  0.55020  1.0000
  C   C314      1.0  0.79836  0.79821  0.54017  1.0000
  C   C315      1.0  0.77379  0.77361  0.47996  1.0000
  C   C316      1.0  0.77379  0.77362  0.45990  1.0000
  C   C317      1.0  0.78608  0.78591  0.44986  1.0000
  C   C318      1.0  0.79836  0.79821  0.45989  1.0000
  C   C319      1.0  0.78608  0.78591  0.42979  1.0000
  C   C320      1.0  0.77379  0.77362  0.41975  1.0000
  C   C321      1.0  0.76151  0.76132  0.42978  1.0000
  C   C322      1.0  0.76151  0.76132  0.44986  1.0000
  C   C323      1.0  0.84750  0.84739  0.52010  1.0000
  C   C324      1.0  0.85979  0.85968  0.51007  1.0000
  C   C325      1.0  0.85979  0.85968  0.48999  1.0000
  C   C326      1.0  0.84750  0.84739  0.47996  1.0000
  H   H121      1.0  0.82293  0.82280  0.46510  1.0000
  H   H122      1.0  0.82293  0.82280  0.53495  1.0000
  H   H123      1.0  0.76470  0.76451  0.51267  1.0000
  H   H124      1.0  0.80746  0.80731  0.54759  1.0000
  H   H125      1.0  0.76470  0.76451  0.48739  1.0000
  H   H126      1.0  0.80745  0.80731  0.45246  1.0000
  H   H127      1.0  0.79517  0.79501  0.42236  1.0000
  O   O61       1.0  0.77379  0.77362  0.40020  1.0000
  O   O62       1.0  0.74954  0.74934  0.42001  1.0000
  H   H128      1.0  0.75241  0.75222  0.45729  1.0000
  H   H129      1.0  0.84750  0.84739  0.53496  1.0000
  O   O63       1.0  0.87176  0.87166  0.51984  1.0000
  O   O64       1.0  0.87175  0.87166  0.48022  1.0000
  H   H130      1.0  0.84750  0.84739  0.46510  1.0000
  C   C327      1.0  0.78608  0.78591  0.57028  1.0000
  C   C328      1.0  0.77380  0.77362  0.58031  1.0000
  C   C329      1.0  0.76151  0.76132  0.57027  1.0000
  C   C330      1.0  0.76151  0.76132  0.55020  1.0000
  H   H131      1.0  0.79517  0.79501  0.57770  1.0000
  O   O65       1.0  0.77380  0.77362  0.59986  1.0000
  O   O66       1.0  0.74954  0.74934  0.58005  1.0000
  H   H132      1.0  0.75241  0.75222  0.54278  1.0000
  C   C331      1.0  0.18940  0.81050  0.51005  1.0000
  C   C332      1.0  0.18940  0.81049  0.48999  1.0000
  C   C333      1.0  0.20169  0.79820  0.47996  1.0000
  C   C334      1.0  0.21397  0.78591  0.48999  1.0000
  C   C335      1.0  0.21397  0.78590  0.51006  1.0000
  C   C336      1.0  0.20169  0.79820  0.52009  1.0000
  C   C337      1.0  0.22625  0.77361  0.47995  1.0000
  C   C338      1.0  0.22626  0.77361  0.45989  1.0000
  C   C339      1.0  0.21397  0.78591  0.44985  1.0000
  C   C340      1.0  0.20169  0.79820  0.45988  1.0000
  C   C341      1.0  0.17712  0.82279  0.52009  1.0000
  C   C342      1.0  0.16483  0.83508  0.51006  1.0000
  C   C343      1.0  0.16483  0.83509  0.48999  1.0000
  C   C344      1.0  0.17712  0.82279  0.47995  1.0000
  C   C345      1.0  0.20169  0.79820  0.54017  1.0000
  C   C346      1.0  0.21397  0.78590  0.55019  1.0000
  C   C347      1.0  0.22625  0.77361  0.54016  1.0000
  C   C348      1.0  0.22626  0.77361  0.52010  1.0000
  C   C349      1.0  0.23854  0.76131  0.55020  1.0000
  C   C350      1.0  0.23854  0.76131  0.57027  1.0000
  C   C351      1.0  0.22626  0.77361  0.58031  1.0000
  C   C352      1.0  0.21397  0.78590  0.57027  1.0000
  C   C353      1.0  0.21397  0.78591  0.42978  1.0000
  C   C354      1.0  0.22625  0.77361  0.41974  1.0000
  C   C355      1.0  0.23854  0.76131  0.42978  1.0000
  C   C356      1.0  0.23854  0.76131  0.44985  1.0000
  H   H133      1.0  0.23535  0.76451  0.48739  1.0000
  H   H134      1.0  0.19259  0.80730  0.45246  1.0000
  H   H135      1.0  0.17712  0.82279  0.53495  1.0000
  H   H136      1.0  0.17712  0.82279  0.46510  1.0000
  H   H137      1.0  0.19259  0.80730  0.54759  1.0000
  H   H138      1.0  0.23535  0.76451  0.51267  1.0000
  H   H139      1.0  0.24764  0.75221  0.54277  1.0000
  O   O67       1.0  0.25051  0.74933  0.58004  1.0000
  O   O68       1.0  0.22626  0.77361  0.59985  1.0000
  H   H140      1.0  0.20488  0.79500  0.57770  1.0000
  H   H141      1.0  0.20488  0.79501  0.42235  1.0000
  O   O69       1.0  0.22625  0.77361  0.40019  1.0000
  O   O70       1.0  0.25051  0.74934  0.42001  1.0000
  H   H142      1.0  0.24764  0.75221  0.45728  1.0000
  C   C357      1.0  0.15255  0.84738  0.47995  1.0000
  C   C358      1.0  0.14026  0.85968  0.48999  1.0000
  C   C359      1.0  0.14026  0.85968  0.51006  1.0000
  C   C360      1.0  0.15255  0.84738  0.52010  1.0000
  H   H143      1.0  0.15255  0.84738  0.46510  1.0000
  O   O71       1.0  0.12830  0.87165  0.48021  1.0000
  O   O72       1.0  0.12830  0.87165  0.51983  1.0000
  H   H144      1.0  0.15255  0.84738  0.53495  1.0000
  C   C361      1.0  0.48998  0.19000  0.18922  1.0000
  C   C362      1.0  0.51006  0.19000  0.18922  1.0000
  C   C363      1.0  0.52011  0.20229  0.20150  1.0000
  C   C364      1.0  0.51007  0.21457  0.21378  1.0000
  C   C365      1.0  0.48998  0.21457  0.21378  1.0000
  C   C366      1.0  0.47993  0.20229  0.20150  1.0000
  C   C367      1.0  0.52011  0.22686  0.22606  1.0000
  C   C368      1.0  0.54019  0.22686  0.22606  1.0000
  C   C369      1.0  0.55024  0.21457  0.21378  1.0000
  C   C370      1.0  0.54020  0.20229  0.20150  1.0000
  C   C371      1.0  0.47993  0.17771  0.17693  1.0000
  C   C372      1.0  0.48997  0.16543  0.16466  1.0000
  C   C373      1.0  0.51006  0.16543  0.16465  1.0000
  C   C374      1.0  0.52011  0.17771  0.17694  1.0000
  C   C375      1.0  0.45984  0.20229  0.20150  1.0000
  C   C376      1.0  0.44980  0.21457  0.21378  1.0000
  C   C377      1.0  0.45985  0.22686  0.22606  1.0000
  C   C378      1.0  0.47993  0.22686  0.22606  1.0000
  C   C379      1.0  0.44980  0.23915  0.23834  1.0000
  C   C380      1.0  0.42970  0.23915  0.23834  1.0000
  C   C381      1.0  0.41966  0.22686  0.22606  1.0000
  C   C382      1.0  0.42971  0.21457  0.21378  1.0000
  C   C383      1.0  0.57034  0.21457  0.21378  1.0000
  C   C384      1.0  0.58038  0.22686  0.22606  1.0000
  C   C385      1.0  0.57033  0.23915  0.23834  1.0000
  C   C386      1.0  0.55024  0.23915  0.23835  1.0000
  H   H145      1.0  0.51267  0.23596  0.23516  1.0000
  H   H146      1.0  0.54763  0.19319  0.19241  1.0000
  H   H147      1.0  0.46506  0.17772  0.17694  1.0000
  H   H148      1.0  0.53498  0.17772  0.17694  1.0000
  H   H149      1.0  0.45240  0.19319  0.19241  1.0000
  H   H150      1.0  0.48736  0.23596  0.23515  1.0000
  H   H151      1.0  0.45723  0.24824  0.24743  1.0000
  O   O73       1.0  0.41992  0.25111  0.25031  1.0000
  O   O74       1.0  0.40009  0.22686  0.22606  1.0000
  H   H152      1.0  0.42227  0.20548  0.20469  1.0000
  H   H153      1.0  0.57777  0.20548  0.20469  1.0000
  O   O75       1.0  0.59995  0.22686  0.22606  1.0000
  O   O76       1.0  0.58011  0.25112  0.25031  1.0000
  H   H154      1.0  0.54281  0.24824  0.24744  1.0000
  C   C387      1.0  0.52011  0.15314  0.15237  1.0000
  C   C388      1.0  0.51007  0.14085  0.14009  1.0000
  C   C389      1.0  0.48998  0.14085  0.14009  1.0000
  C   C390      1.0  0.47993  0.15314  0.15237  1.0000
  H   H155      1.0  0.53498  0.15314  0.15237  1.0000
  O   O77       1.0  0.51985  0.12889  0.12813  1.0000
  O   O78       1.0  0.48019  0.12889  0.12813  1.0000
  H   H156      1.0  0.46506  0.15314  0.15237  1.0000
  C   C391      1.0  0.78619  0.49016  0.21452  1.0000
  C   C392      1.0  0.79848  0.48014  0.20222  1.0000
  C   C393      1.0  0.81077  0.49017  0.18992  1.0000
  C   C394      1.0  0.81078  0.51021  0.18992  1.0000
  C   C395      1.0  0.79848  0.52024  0.20222  1.0000
  C   C396      1.0  0.78619  0.51021  0.21452  1.0000
  C   C397      1.0  0.82307  0.52023  0.17762  1.0000
  C   C398      1.0  0.83536  0.51022  0.16532  1.0000
  C   C399      1.0  0.83536  0.49016  0.16532  1.0000
  C   C400      1.0  0.82307  0.48014  0.17762  1.0000
  C   C401      1.0  0.77390  0.48013  0.22681  1.0000
  C   C402      1.0  0.77389  0.46009  0.22682  1.0000
  C   C403      1.0  0.78619  0.45006  0.21452  1.0000
  C   C404      1.0  0.79848  0.46009  0.20222  1.0000
  C   C405      1.0  0.77389  0.52024  0.22682  1.0000
  C   C406      1.0  0.77390  0.54028  0.22681  1.0000
  C   C407      1.0  0.78619  0.55031  0.21451  1.0000
  C   C408      1.0  0.79848  0.54029  0.20222  1.0000
  C   C409      1.0  0.78619  0.57036  0.21451  1.0000
  C   C410      1.0  0.77389  0.58039  0.22681  1.0000
  C   C411      1.0  0.76160  0.57037  0.23911  1.0000
  C   C412      1.0  0.76160  0.55031  0.23911  1.0000
  C   C413      1.0  0.84766  0.48013  0.15302  1.0000
  C   C414      1.0  0.85995  0.49016  0.14072  1.0000
  C   C415      1.0  0.85995  0.51021  0.14072  1.0000
  C   C416      1.0  0.84765  0.52024  0.15302  1.0000
  H   H157      1.0  0.82307  0.53508  0.17762  1.0000
  H   H158      1.0  0.82307  0.46530  0.17762  1.0000
  H   H159      1.0  0.76479  0.48756  0.23592  1.0000
  H   H160      1.0  0.80758  0.45267  0.19312  1.0000
  H   H161      1.0  0.76479  0.51282  0.23592  1.0000
  H   H162      1.0  0.80758  0.54771  0.19311  1.0000
  H   H163      1.0  0.79529  0.57778  0.20541  1.0000
  O   O79       1.0  0.77389  0.59992  0.22681  1.0000
  O   O80       1.0  0.74963  0.58013  0.25109  1.0000
  H   H164      1.0  0.75250  0.54289  0.24822  1.0000
  H   H165      1.0  0.84766  0.46529  0.15302  1.0000
  O   O81       1.0  0.87192  0.48039  0.12874  1.0000
  O   O82       1.0  0.87192  0.51998  0.12874  1.0000
  H   H166      1.0  0.84765  0.53508  0.15302  1.0000
  C   C417      1.0  0.78619  0.43001  0.21452  1.0000
  C   C418      1.0  0.77390  0.41998  0.22682  1.0000
  C   C419      1.0  0.76160  0.43001  0.23912  1.0000
  C   C420      1.0  0.76160  0.45007  0.23912  1.0000
  H   H167      1.0  0.79529  0.42259  0.20542  1.0000
  O   O83       1.0  0.77390  0.40045  0.22682  1.0000
  O   O84       1.0  0.74963  0.42025  0.25110  1.0000
  H   H168      1.0  0.75250  0.45748  0.24822  1.0000
  C   C421      1.0  0.48997  0.78579  0.21374  1.0000
  C   C422      1.0  0.47994  0.79807  0.20146  1.0000
  C   C423      1.0  0.48998  0.81036  0.18918  1.0000
  C   C424      1.0  0.51006  0.81036  0.18918  1.0000
  C   C425      1.0  0.52011  0.79807  0.20146  1.0000
  C   C426      1.0  0.51007  0.78579  0.21375  1.0000
  C   C427      1.0  0.52011  0.82265  0.17690  1.0000
  C   C428      1.0  0.51007  0.83493  0.16462  1.0000
  C   C429      1.0  0.48998  0.83493  0.16462  1.0000
  C   C430      1.0  0.47993  0.82265  0.17690  1.0000
  C   C431      1.0  0.47993  0.77350  0.22602  1.0000
  C   C432      1.0  0.45985  0.77350  0.22603  1.0000
  C   C433      1.0  0.44980  0.78579  0.21374  1.0000
  C   C434      1.0  0.45984  0.79807  0.20146  1.0000
  C   C435      1.0  0.52011  0.77350  0.22603  1.0000
  C   C436      1.0  0.54020  0.77350  0.22603  1.0000
  C   C437      1.0  0.55024  0.78579  0.21374  1.0000
  C   C438      1.0  0.54020  0.79807  0.20147  1.0000
  C   C439      1.0  0.57033  0.78579  0.21375  1.0000
  C   C440      1.0  0.58038  0.77350  0.22603  1.0000
  C   C441      1.0  0.57034  0.76121  0.23831  1.0000
  C   C442      1.0  0.55024  0.76121  0.23831  1.0000
  C   C443      1.0  0.47993  0.84722  0.15234  1.0000
  C   C444      1.0  0.48997  0.85951  0.14005  1.0000
  C   C445      1.0  0.51007  0.85951  0.14006  1.0000
  C   C446      1.0  0.52011  0.84722  0.15234  1.0000
  H   H169      1.0  0.53499  0.82265  0.17690  1.0000
  H   H170      1.0  0.46506  0.82264  0.17690  1.0000
  H   H171      1.0  0.48737  0.76440  0.23512  1.0000
  H   H172      1.0  0.45241  0.80717  0.19237  1.0000
  H   H173      1.0  0.51268  0.76440  0.23512  1.0000
  H   H174      1.0  0.54764  0.80717  0.19237  1.0000
  H   H175      1.0  0.57777  0.79488  0.20465  1.0000
  O   O85       1.0  0.59995  0.77350  0.22603  1.0000
  O   O86       1.0  0.58012  0.74924  0.25027  1.0000
  H   H176      1.0  0.54281  0.75212  0.24740  1.0000
  H   H177      1.0  0.46506  0.84722  0.15234  1.0000
  O   O87       1.0  0.48019  0.87148  0.12809  1.0000
  O   O88       1.0  0.51985  0.87148  0.12809  1.0000
  H   H178      1.0  0.53498  0.84722  0.15234  1.0000
  C   C447      1.0  0.42971  0.78579  0.21374  1.0000
  C   C448      1.0  0.41966  0.77350  0.22602  1.0000
  C   C449      1.0  0.42971  0.76121  0.23831  1.0000
  C   C450      1.0  0.44980  0.76121  0.23831  1.0000
  H   H179      1.0  0.42227  0.79488  0.20465  1.0000
  O   O89       1.0  0.40009  0.77350  0.22602  1.0000
  O   O90       1.0  0.41993  0.74924  0.25027  1.0000
  H   H180      1.0  0.45724  0.75212  0.24740  1.0000
  C   C451      1.0  0.18926  0.51021  0.18990  1.0000
  C   C452      1.0  0.18927  0.49016  0.18991  1.0000
  C   C453      1.0  0.20156  0.48014  0.20221  1.0000
  C   C454      1.0  0.21385  0.49016  0.21450  1.0000
  C   C455      1.0  0.21385  0.51021  0.21450  1.0000
  C   C456      1.0  0.20156  0.52024  0.20220  1.0000
  C   C457      1.0  0.22614  0.48013  0.22680  1.0000
  C   C458      1.0  0.22615  0.46009  0.22680  1.0000
  C   C459      1.0  0.21385  0.45006  0.21450  1.0000
  C   C460      1.0  0.20156  0.46009  0.20220  1.0000
  C   C461      1.0  0.17697  0.52023  0.17760  1.0000
  C   C462      1.0  0.16468  0.51022  0.16531  1.0000
  C   C463      1.0  0.16468  0.49016  0.16531  1.0000
  C   C464      1.0  0.17697  0.48014  0.17761  1.0000
  C   C465      1.0  0.20156  0.54029  0.20220  1.0000
  C   C466      1.0  0.21385  0.55031  0.21450  1.0000
  C   C467      1.0  0.22615  0.54028  0.22680  1.0000
  C   C468      1.0  0.22615  0.52024  0.22680  1.0000
  C   C469      1.0  0.23844  0.55031  0.23910  1.0000
  C   C470      1.0  0.23844  0.57036  0.23910  1.0000
  C   C471      1.0  0.22615  0.58039  0.22680  1.0000
  C   C472      1.0  0.21385  0.57036  0.21450  1.0000
  C   C473      1.0  0.21385  0.43001  0.21450  1.0000
  C   C474      1.0  0.22614  0.41998  0.22680  1.0000
  C   C475      1.0  0.23844  0.43001  0.23910  1.0000
  C   C476      1.0  0.23844  0.45006  0.23910  1.0000
  H   H181      1.0  0.23525  0.48756  0.23591  1.0000
  H   H182      1.0  0.19246  0.45267  0.19310  1.0000
  H   H183      1.0  0.17698  0.53508  0.17761  1.0000
  H   H184      1.0  0.17697  0.46530  0.17761  1.0000
  H   H185      1.0  0.19246  0.54771  0.19310  1.0000
  H   H186      1.0  0.23525  0.51282  0.23591  1.0000
  H   H187      1.0  0.24754  0.54289  0.24820  1.0000
  O   O91       1.0  0.25042  0.58013  0.25108  1.0000
  O   O92       1.0  0.22615  0.59992  0.22680  1.0000
  H   H188      1.0  0.20475  0.57778  0.20540  1.0000
  H   H189      1.0  0.20475  0.42259  0.20540  1.0000
  O   O93       1.0  0.22614  0.40045  0.22680  1.0000
  O   O94       1.0  0.25041  0.42025  0.25108  1.0000
  H   H190      1.0  0.24754  0.45748  0.24821  1.0000
  C   C477      1.0  0.15238  0.48013  0.15301  1.0000
  C   C478      1.0  0.14009  0.49016  0.14071  1.0000
  C   C479      1.0  0.14009  0.51021  0.14071  1.0000
  C   C480      1.0  0.15239  0.52024  0.15301  1.0000
  H   H191      1.0  0.15238  0.46529  0.15301  1.0000
  O   O95       1.0  0.12812  0.48039  0.12873  1.0000
  O   O96       1.0  0.12812  0.51998  0.12873  1.0000
  H   H192      1.0  0.15239  0.53508  0.15301  1.0000
  C   C481      1.0  0.48998  0.78578  0.78631  1.0000
  C   C482      1.0  0.47994  0.79806  0.79859  1.0000
  C   C483      1.0  0.48999  0.81035  0.81087  1.0000
  C   C484      1.0  0.51007  0.81035  0.81087  1.0000
  C   C485      1.0  0.52012  0.79806  0.79859  1.0000
  C   C486      1.0  0.51007  0.78578  0.78631  1.0000
  C   C487      1.0  0.52011  0.82264  0.82315  1.0000
  C   C488      1.0  0.51007  0.83492  0.83543  1.0000
  C   C489      1.0  0.48998  0.83492  0.83543  1.0000
  C   C490      1.0  0.47994  0.82264  0.82315  1.0000
  C   C491      1.0  0.47993  0.77349  0.77403  1.0000
  C   C492      1.0  0.45985  0.77349  0.77402  1.0000
  C   C493      1.0  0.44980  0.78577  0.78631  1.0000
  C   C494      1.0  0.45985  0.79806  0.79859  1.0000
  C   C495      1.0  0.52012  0.77349  0.77403  1.0000
  C   C496      1.0  0.54020  0.77349  0.77403  1.0000
  C   C497      1.0  0.55025  0.78578  0.78631  1.0000
  C   C498      1.0  0.54021  0.79806  0.79859  1.0000
  C   C499      1.0  0.57034  0.78578  0.78631  1.0000
  C   C500      1.0  0.58039  0.77349  0.77403  1.0000
  C   C501      1.0  0.57034  0.76120  0.76175  1.0000
  C   C502      1.0  0.55025  0.76120  0.76175  1.0000
  C   C503      1.0  0.47993  0.84721  0.84772  1.0000
  C   C504      1.0  0.48998  0.85950  0.86000  1.0000
  C   C505      1.0  0.51007  0.85950  0.86000  1.0000
  C   C506      1.0  0.52012  0.84721  0.84771  1.0000
  H   H193      1.0  0.53499  0.82263  0.82315  1.0000
  H   H194      1.0  0.46507  0.82263  0.82315  1.0000
  H   H195      1.0  0.48738  0.76439  0.76493  1.0000
  H   H196      1.0  0.45242  0.80716  0.80768  1.0000
  H   H197      1.0  0.51268  0.76439  0.76493  1.0000
  H   H198      1.0  0.54764  0.80716  0.80768  1.0000
  H   H199      1.0  0.57777  0.79487  0.79540  1.0000
  O   O97       1.0  0.59995  0.77349  0.77403  1.0000
  O   O98       1.0  0.58013  0.74924  0.74978  1.0000
  H   H200      1.0  0.54281  0.75211  0.75265  1.0000
  H   H201      1.0  0.46506  0.84721  0.84771  1.0000
  O   O99       1.0  0.48019  0.87146  0.87196  1.0000
  O   O100      1.0  0.51985  0.87146  0.87196  1.0000
  H   H202      1.0  0.53499  0.84721  0.84771  1.0000
  C   C507      1.0  0.42971  0.78578  0.78631  1.0000
  C   C508      1.0  0.41967  0.77349  0.77403  1.0000
  C   C509      1.0  0.42971  0.76120  0.76174  1.0000
  C   C510      1.0  0.44981  0.76120  0.76174  1.0000
  H   H203      1.0  0.42228  0.79487  0.79540  1.0000
  O   O101      1.0  0.40010  0.77349  0.77403  1.0000
  O   O102      1.0  0.41993  0.74923  0.74978  1.0000
  H   H204      1.0  0.45724  0.75211  0.75265  1.0000
  C   C511      1.0  0.18925  0.49016  0.81014  1.0000
  C   C512      1.0  0.18925  0.51020  0.81014  1.0000
  C   C513      1.0  0.20155  0.52023  0.79784  1.0000
  C   C514      1.0  0.21384  0.51021  0.78554  1.0000
  C   C515      1.0  0.21384  0.49016  0.78554  1.0000
  C   C516      1.0  0.20154  0.48013  0.79784  1.0000
  C   C517      1.0  0.22613  0.52023  0.77324  1.0000
  C   C518      1.0  0.22613  0.54028  0.77324  1.0000
  C   C519      1.0  0.21384  0.55031  0.78554  1.0000
  C   C520      1.0  0.20154  0.54028  0.79784  1.0000
  C   C521      1.0  0.17695  0.48013  0.82244  1.0000
  C   C522      1.0  0.16466  0.49015  0.83473  1.0000
  C   C523      1.0  0.16466  0.51021  0.83474  1.0000
  C   C524      1.0  0.17696  0.52023  0.82244  1.0000
  C   C525      1.0  0.20154  0.46008  0.79784  1.0000
  C   C526      1.0  0.21383  0.45006  0.78554  1.0000
  C   C527      1.0  0.22613  0.46008  0.77324  1.0000
  C   C528      1.0  0.22613  0.48013  0.77324  1.0000
  C   C529      1.0  0.23842  0.45006  0.76094  1.0000
  C   C530      1.0  0.23842  0.43000  0.76094  1.0000
  C   C531      1.0  0.22613  0.41998  0.77324  1.0000
  C   C532      1.0  0.21383  0.43001  0.78554  1.0000
  C   C533      1.0  0.21384  0.57036  0.78554  1.0000
  C   C534      1.0  0.22613  0.58038  0.77324  1.0000
  C   C535      1.0  0.23843  0.57036  0.76094  1.0000
  C   C536      1.0  0.23843  0.55030  0.76094  1.0000
  H   H205      1.0  0.23523  0.51280  0.76414  1.0000
  H   H206      1.0  0.19245  0.54770  0.80694  1.0000
  H   H207      1.0  0.17696  0.46528  0.82244  1.0000
  H   H208      1.0  0.17696  0.53507  0.82244  1.0000
  H   H209      1.0  0.19244  0.45266  0.80694  1.0000
  H   H210      1.0  0.23523  0.48755  0.76414  1.0000
  H   H211      1.0  0.24752  0.45748  0.75184  1.0000
  O   O103      1.0  0.25040  0.42024  0.74896  1.0000
  O   O104      1.0  0.22613  0.40045  0.77324  1.0000
  H   H212      1.0  0.20473  0.42258  0.79465  1.0000
  H   H213      1.0  0.20474  0.57778  0.79465  1.0000
  O   O105      1.0  0.22613  0.59991  0.77324  1.0000
  O   O106      1.0  0.25040  0.58012  0.74896  1.0000
  H   H214      1.0  0.24753  0.54288  0.75184  1.0000
  C   C537      1.0  0.15237  0.52023  0.84704  1.0000
  C   C538      1.0  0.14008  0.51021  0.85933  1.0000
  C   C539      1.0  0.14008  0.49016  0.85933  1.0000
  C   C540      1.0  0.15237  0.48013  0.84703  1.0000
  H   H215      1.0  0.15237  0.53507  0.84703  1.0000
  O   O107      1.0  0.12810  0.51997  0.87131  1.0000
  O   O108      1.0  0.12810  0.48039  0.87131  1.0000
  H   H216      1.0  0.15237  0.46529  0.84703  1.0000
  C   C541      1.0  0.48998  0.19000  0.81085  1.0000
  C   C542      1.0  0.51006  0.19000  0.81085  1.0000
  C   C543      1.0  0.52011  0.20229  0.79856  1.0000
  C   C544      1.0  0.51007  0.21457  0.78629  1.0000
  C   C545      1.0  0.48998  0.21457  0.78628  1.0000
  C   C546      1.0  0.47994  0.20228  0.79857  1.0000
  C   C547      1.0  0.52012  0.22686  0.77400  1.0000
  C   C548      1.0  0.54020  0.22686  0.77400  1.0000
  C   C549      1.0  0.55025  0.21457  0.78628  1.0000
  C   C550      1.0  0.54020  0.20228  0.79857  1.0000
  C   C551      1.0  0.47994  0.17771  0.82313  1.0000
  C   C552      1.0  0.48998  0.16543  0.83541  1.0000
  C   C553      1.0  0.51007  0.16542  0.83541  1.0000
  C   C554      1.0  0.52011  0.17771  0.82313  1.0000
  C   C555      1.0  0.45984  0.20229  0.79856  1.0000
  C   C556      1.0  0.44981  0.21457  0.78629  1.0000
  C   C557      1.0  0.45985  0.22686  0.77400  1.0000
  C   C558      1.0  0.47993  0.22686  0.77400  1.0000
  C   C559      1.0  0.44980  0.23914  0.76172  1.0000
  C   C560      1.0  0.42971  0.23915  0.76172  1.0000
  C   C561      1.0  0.41966  0.22686  0.77400  1.0000
  C   C562      1.0  0.42971  0.21457  0.78628  1.0000
  C   C563      1.0  0.57034  0.21457  0.78629  1.0000
  C   C564      1.0  0.58038  0.22686  0.77400  1.0000
  C   C565      1.0  0.57034  0.23915  0.76172  1.0000
  C   C566      1.0  0.55024  0.23915  0.76172  1.0000
  H   H217      1.0  0.51267  0.23596  0.76491  1.0000
  H   H218      1.0  0.54763  0.19319  0.80766  1.0000
  H   H219      1.0  0.46506  0.17771  0.82313  1.0000
  H   H220      1.0  0.53498  0.17771  0.82313  1.0000
  H   H221      1.0  0.45241  0.19319  0.80766  1.0000
  H   H222      1.0  0.48737  0.23595  0.76491  1.0000
  H   H223      1.0  0.45724  0.24824  0.75263  1.0000
  O   O109      1.0  0.41993  0.25111  0.74976  1.0000
  O   O110      1.0  0.40010  0.22686  0.77400  1.0000
  H   H224      1.0  0.42228  0.20547  0.79538  1.0000
  H   H225      1.0  0.57777  0.20548  0.79538  1.0000
  O   O111      1.0  0.59995  0.22686  0.77400  1.0000
  O   O112      1.0  0.58012  0.25111  0.74976  1.0000
  H   H226      1.0  0.54281  0.24824  0.75263  1.0000
  C   C567      1.0  0.52012  0.15314  0.84769  1.0000
  C   C568      1.0  0.51007  0.14085  0.85998  1.0000
  C   C569      1.0  0.48998  0.14085  0.85997  1.0000
  C   C570      1.0  0.47993  0.15314  0.84769  1.0000
  H   H227      1.0  0.53498  0.15314  0.84769  1.0000
  O   O113      1.0  0.51986  0.12888  0.87194  1.0000
  O   O114      1.0  0.48020  0.12888  0.87194  1.0000
  H   H228      1.0  0.46506  0.15314  0.84769  1.0000
  C   C571      1.0  0.78622  0.49015  0.78554  1.0000
  C   C572      1.0  0.79851  0.48014  0.79784  1.0000
  C   C573      1.0  0.81080  0.49016  0.81014  1.0000
  C   C574      1.0  0.81081  0.51020  0.81014  1.0000
  C   C575      1.0  0.79851  0.52023  0.79784  1.0000
  C   C576      1.0  0.78622  0.51021  0.78554  1.0000
  C   C577      1.0  0.82310  0.52023  0.82244  1.0000
  C   C578      1.0  0.83539  0.51021  0.83473  1.0000
  C   C579      1.0  0.83539  0.49016  0.83473  1.0000
  C   C580      1.0  0.82310  0.48013  0.82244  1.0000
  C   C581      1.0  0.77392  0.48013  0.77324  1.0000
  C   C582      1.0  0.77392  0.46009  0.77324  1.0000
  C   C583      1.0  0.78622  0.45006  0.78554  1.0000
  C   C584      1.0  0.79851  0.46008  0.79784  1.0000
  C   C585      1.0  0.77392  0.52024  0.77324  1.0000
  C   C586      1.0  0.77392  0.54028  0.77324  1.0000
  C   C587      1.0  0.78622  0.55030  0.78554  1.0000
  C   C588      1.0  0.79851  0.54029  0.79784  1.0000
  C   C589      1.0  0.78622  0.57036  0.78554  1.0000
  C   C590      1.0  0.77392  0.58039  0.77324  1.0000
  C   C591      1.0  0.76163  0.57036  0.76094  1.0000
  C   C592      1.0  0.76163  0.55031  0.76094  1.0000
  C   C593      1.0  0.84769  0.48013  0.84703  1.0000
  C   C594      1.0  0.85998  0.49015  0.85933  1.0000
  C   C595      1.0  0.85998  0.51021  0.85933  1.0000
  C   C596      1.0  0.84768  0.52024  0.84703  1.0000
  H   H229      1.0  0.82309  0.53508  0.82243  1.0000
  H   H230      1.0  0.82310  0.46529  0.82243  1.0000
  H   H231      1.0  0.76482  0.48756  0.76413  1.0000
  H   H232      1.0  0.80761  0.45266  0.80694  1.0000
  H   H233      1.0  0.76482  0.51282  0.76414  1.0000
  H   H234      1.0  0.80761  0.54771  0.80694  1.0000
  H   H235      1.0  0.79532  0.57778  0.79464  1.0000
  O   O115      1.0  0.77392  0.59992  0.77324  1.0000
  O   O116      1.0  0.74965  0.58013  0.74896  1.0000
  H   H236      1.0  0.75253  0.54289  0.75184  1.0000
  H   H237      1.0  0.84768  0.46529  0.84703  1.0000
  O   O117      1.0  0.87195  0.48039  0.87131  1.0000
  O   O118      1.0  0.87195  0.51997  0.87131  1.0000
  H   H238      1.0  0.84768  0.53508  0.84703  1.0000
  C   C597      1.0  0.78622  0.43000  0.78554  1.0000
  C   C598      1.0  0.77393  0.41998  0.77324  1.0000
  C   C599      1.0  0.76163  0.43001  0.76094  1.0000
  C   C600      1.0  0.76163  0.45006  0.76094  1.0000
  H   H239      1.0  0.79532  0.42259  0.79464  1.0000
  O   O119      1.0  0.77393  0.40045  0.77324  1.0000
  O   O120      1.0  0.74966  0.42024  0.74896  1.0000
  H   H240      1.0  0.75253  0.45748  0.75184  1.0000
  C   C601      1.0  0.06825  0.96068  0.50002  1.0000
  C   C602      1.0  0.07330  0.94117  0.50002  1.0000
  C   C603      1.0  0.05900  0.92688  0.50002  1.0000
  C   C604      1.0  0.03953  0.93199  0.50002  1.0000
  C   C605      1.0  0.03508  0.95141  0.50002  1.0000
  C   C606      1.0  0.04886  0.96519  0.50002  1.0000
  C   C607      1.0  0.03978  0.98295  0.50003  1.0000
  N   N1        1.0  0.02010  0.98019  0.50003  1.0000
  C   C608      1.0  0.01732  0.96051  0.50003  1.0000
  N   N2        1.0  0.00010  0.95109  0.50003  1.0000
  C   C609      1.0  0.98282  0.96050  0.50003  1.0000
  N   N3        1.0  0.98004  0.98018  0.50003  1.0000
  C   C610      1.0  0.96039  0.98296  0.50003  1.0000
  C   C611      1.0  0.95132  0.96519  0.50003  1.0000
  C   C612      1.0  0.96506  0.95141  0.50003  1.0000
  N   N4        1.0  0.98003  0.02018  0.50003  1.0000
  C   C613      1.0  0.96039  0.01740  0.50003  1.0000
  N   N5        1.0  0.95099  0.00010  0.50003  1.0000
  C   C614      1.0  0.95131  0.03518  0.50003  1.0000
  C   C615      1.0  0.96507  0.04896  0.50003  1.0000
  C   C616      1.0  0.98281  0.03986  0.50003  1.0000
  C   C617      1.0  0.96059  0.93198  0.50003  1.0000
  C   C618      1.0  0.94116  0.92687  0.50003  1.0000
  C   C619      1.0  0.92690  0.94116  0.50003  1.0000
  C   C620      1.0  0.93195  0.96067  0.50003  1.0000
  C   C621      1.0  0.96060  0.06838  0.50003  1.0000
  C   C622      1.0  0.94116  0.07350  0.50003  1.0000
  C   C623      1.0  0.92690  0.05920  0.50003  1.0000
  C   C624      1.0  0.93195  0.03969  0.50003  1.0000
  N   N6        1.0  0.02011  0.02019  0.50003  1.0000
  C   C625      1.0  0.01732  0.03985  0.50003  1.0000
  N   N7        1.0  0.00010  0.04926  0.50003  1.0000
  C   C626      1.0  0.03508  0.04896  0.50003  1.0000
  C   C627      1.0  0.04884  0.03518  0.50003  1.0000
  C   C628      1.0  0.03977  0.01741  0.50003  1.0000
  C   C629      1.0  0.06822  0.03970  0.50003  1.0000
  C   C630      1.0  0.07329  0.05921  0.50003  1.0000
  C   C631      1.0  0.05900  0.07350  0.50003  1.0000
  C   C632      1.0  0.03953  0.06838  0.50003  1.0000
  N   N8        1.0  0.04919  0.00010  0.50003  1.0000
  H   H241      1.0  0.07856  0.97129  0.50002  1.0000
  H   H242      1.0  0.02892  0.92167  0.50002  1.0000
  H   H243      1.0  0.97119  0.92166  0.50003  1.0000
  H   H244      1.0  0.92165  0.97129  0.50003  1.0000
  H   H245      1.0  0.97119  0.07870  0.50003  1.0000
  H   H246      1.0  0.92166  0.02907  0.50003  1.0000
  H   H247      1.0  0.07854  0.02908  0.50003  1.0000
  H   H248      1.0  0.02892  0.07870  0.50003  1.0000
  C   C633      1.0  0.09256  0.06451  0.50003  1.0000
  C   C634      1.0  0.09769  0.08390  0.50003  1.0000
  C   C635      1.0  0.08356  0.09803  0.50003  1.0000
  C   C636      1.0  0.06424  0.09283  0.50003  1.0000
  C   C637      1.0  0.09259  0.93586  0.50002  1.0000
  C   C638      1.0  0.09773  0.91647  0.50002  1.0000
  C   C639      1.0  0.08360  0.90234  0.50002  1.0000
  C   C640      1.0  0.06426  0.90754  0.50002  1.0000
  C   C641      1.0  0.93591  0.90752  0.50003  1.0000
  C   C642      1.0  0.91660  0.90234  0.50003  1.0000
  C   C643      1.0  0.90249  0.91649  0.50003  1.0000
  C   C644      1.0  0.90764  0.93587  0.50003  1.0000
  C   C645      1.0  0.93591  0.09285  0.50003  1.0000
  C   C646      1.0  0.91662  0.09803  0.50003  1.0000
  C   C647      1.0  0.90251  0.08391  0.50003  1.0000
  C   C648      1.0  0.90765  0.06452  0.50003  1.0000
  H   H249      1.0  0.10305  0.05407  0.50003  1.0000
  O   O121      1.0  0.11649  0.08901  0.50003  1.0000
  O   O122      1.0  0.08862  0.11689  0.50003  1.0000
  H   H250      1.0  0.05380  0.10334  0.50003  1.0000
  H   H251      1.0  0.10308  0.94629  0.50002  1.0000
  O   O123      1.0  0.11653  0.91134  0.50002  1.0000
  O   O124      1.0  0.08866  0.88347  0.50002  1.0000
  H   H252      1.0  0.05384  0.89704  0.50002  1.0000
  H   H253      1.0  0.94632  0.89702  0.50003  1.0000
  O   O125      1.0  0.91152  0.88348  0.50003  1.0000
  O   O126      1.0  0.88372  0.91136  0.50003  1.0000
  H   H254      1.0  0.89717  0.94631  0.50003  1.0000
  H   H255      1.0  0.94631  0.10333  0.50003  1.0000
  O   O127      1.0  0.91153  0.11689  0.50003  1.0000
  O   O128      1.0  0.88374  0.08902  0.50003  1.0000
  H   H256      1.0  0.89717  0.05408  0.50003  1.0000
  Ni  Ni1       1.0  0.00010  0.00010  0.50003  1.0000
  C   C649      1.0  0.50002  0.03969  0.06818  1.0000
  C   C650      1.0  0.50002  0.05920  0.07323  1.0000
  C   C651      1.0  0.50002  0.07348  0.05895  1.0000
  C   C652      1.0  0.50002  0.06838  0.03950  1.0000
  C   C653      1.0  0.50002  0.04896  0.03504  1.0000
  C   C654      1.0  0.50002  0.03518  0.04881  1.0000
  C   C655      1.0  0.50002  0.01741  0.03974  1.0000
  N   N9        1.0  0.50002  0.02018  0.02008  1.0000
  C   C656      1.0  0.50002  0.03986  0.01730  1.0000
  N   N10       1.0  0.50002  0.04928  0.00010  1.0000
  C   C657      1.0  0.50002  0.03987  0.98283  1.0000
  N   N11       1.0  0.50002  0.02019  0.98006  1.0000
  C   C658      1.0  0.50002  0.01741  0.96043  1.0000
  C   C659      1.0  0.50002  0.03518  0.95136  1.0000
  C   C660      1.0  0.50002  0.04896  0.96509  1.0000
  N   N12       1.0  0.50002  0.98019  0.98005  1.0000
  C   C661      1.0  0.50003  0.98297  0.96043  1.0000
  N   N13       1.0  0.50003  0.00010  0.95104  1.0000
  C   C662      1.0  0.50003  0.96519  0.95136  1.0000
  C   C663      1.0  0.50003  0.95141  0.96510  1.0000
  C   C664      1.0  0.50003  0.96051  0.98283  1.0000
  C   C665      1.0  0.50002  0.06839  0.96063  1.0000
  C   C666      1.0  0.50002  0.07350  0.94122  1.0000
  C   C667      1.0  0.50002  0.05921  0.92697  1.0000
  C   C668      1.0  0.50002  0.03969  0.93202  1.0000
  C   C669      1.0  0.50003  0.93199  0.96064  1.0000
  C   C670      1.0  0.50003  0.92687  0.94121  1.0000
  C   C671      1.0  0.50003  0.94117  0.92697  1.0000
  C   C672      1.0  0.50003  0.96068  0.93202  1.0000
  N   N14       1.0  0.50002  0.98018  0.02009  1.0000
  C   C673      1.0  0.50002  0.96052  0.01730  1.0000
  N   N15       1.0  0.50003  0.95111  0.00010  1.0000
  C   C674      1.0  0.50002  0.95141  0.03504  1.0000
  C   C675      1.0  0.50002  0.96519  0.04880  1.0000
  C   C676      1.0  0.50002  0.98296  0.03973  1.0000
  C   C677      1.0  0.50002  0.96067  0.06816  1.0000
  C   C678      1.0  0.50002  0.94116  0.07321  1.0000
  C   C679      1.0  0.50002  0.92687  0.05894  1.0000
  C   C680      1.0  0.50002  0.93199  0.03950  1.0000
  N   N16       1.0  0.50002  0.00010  0.04915  1.0000
  H   H257      1.0  0.50002  0.02908  0.07848  1.0000
  H   H258      1.0  0.50002  0.07870  0.02889  1.0000
  H   H259      1.0  0.50002  0.07871  0.97122  1.0000
  H   H260      1.0  0.50003  0.02908  0.92172  1.0000
  H   H261      1.0  0.50003  0.92167  0.97122  1.0000
  H   H262      1.0  0.50003  0.97130  0.92173  1.0000
  H   H263      1.0  0.50002  0.97128  0.07846  1.0000
  H   H264      1.0  0.50003  0.92167  0.02889  1.0000
  C   C681      1.0  0.50002  0.93586  0.09247  1.0000
  C   C682      1.0  0.50002  0.91647  0.09760  1.0000
  C   C683      1.0  0.50002  0.90234  0.08348  1.0000
  C   C684      1.0  0.50002  0.90754  0.06417  1.0000
  C   C685      1.0  0.50002  0.06451  0.09250  1.0000
  C   C686      1.0  0.50002  0.08390  0.09763  1.0000
  C   C687      1.0  0.50002  0.09803  0.08352  1.0000
  C   C688      1.0  0.50002  0.09283  0.06420  1.0000
  C   C689      1.0  0.50002  0.09285  0.93598  1.0000
  C   C690      1.0  0.50002  0.09803  0.91668  1.0000
  C   C691      1.0  0.50002  0.08388  0.90259  1.0000
  C   C692      1.0  0.50002  0.06450  0.90773  1.0000
  C   C693      1.0  0.50003  0.90752  0.93597  1.0000
  C   C694      1.0  0.50003  0.90234  0.91670  1.0000
  C   C695      1.0  0.50003  0.91646  0.90261  1.0000
  C   C696      1.0  0.50003  0.93585  0.90774  1.0000
  H   H265      1.0  0.50002  0.94630  0.10295  1.0000
  O   O129      1.0  0.50002  0.91135  0.11638  1.0000
  O   O130      1.0  0.50002  0.88348  0.08854  1.0000
  H   H266      1.0  0.50003  0.89703  0.05375  1.0000
  H   H267      1.0  0.50002  0.05408  0.10298  1.0000
  O   O131      1.0  0.50002  0.08903  0.11641  1.0000
  O   O132      1.0  0.50002  0.11690  0.08857  1.0000
  H   H268      1.0  0.50002  0.10333  0.05378  1.0000
  H   H269      1.0  0.50002  0.10335  0.94637  1.0000
  O   O133      1.0  0.50002  0.11689  0.91161  1.0000
  O   O134      1.0  0.50002  0.08901  0.88384  1.0000
  H   H270      1.0  0.50003  0.05406  0.89727  1.0000
  H   H271      1.0  0.50003  0.89704  0.94636  1.0000
  O   O135      1.0  0.50003  0.88348  0.91162  1.0000
  O   O136      1.0  0.50003  0.91135  0.88385  1.0000
  H   H272      1.0  0.50003  0.94629  0.89727  1.0000
  Ni  Ni2       1.0  0.50002  0.00010  0.00010  1.0000
  C   C697      1.0  0.93195  0.50019  0.03964  1.0000
  C   C698      1.0  0.92690  0.50019  0.05918  1.0000
  C   C699      1.0  0.94120  0.50019  0.07347  1.0000
  C   C700      1.0  0.96067  0.50019  0.06837  1.0000
  C   C701      1.0  0.96512  0.50019  0.04892  1.0000
  C   C702      1.0  0.95134  0.50019  0.03513  1.0000
  C   C703      1.0  0.96042  0.50019  0.01735  1.0000
  N   N17       1.0  0.98010  0.50019  0.02012  1.0000
  C   C704      1.0  0.98288  0.50019  0.03982  1.0000
  N   N18       1.0  0.00010  0.50019  0.04924  1.0000
  C   C705      1.0  0.01738  0.50019  0.03982  1.0000
  N   N19       1.0  0.02016  0.50019  0.02012  1.0000
  C   C706      1.0  0.03981  0.50019  0.01734  1.0000
  C   C707      1.0  0.04888  0.50019  0.03513  1.0000
  C   C708      1.0  0.03514  0.50019  0.04893  1.0000
  N   N20       1.0  0.02017  0.50019  0.98009  1.0000
  C   C709      1.0  0.03981  0.50019  0.98287  1.0000
  N   N21       1.0  0.04921  0.50019  0.00010  1.0000
  C   C710      1.0  0.04889  0.50019  0.96507  1.0000
  C   C711      1.0  0.03513  0.50019  0.95128  1.0000
  C   C712      1.0  0.01739  0.50019  0.96039  1.0000
  C   C713      1.0  0.03961  0.50019  0.06837  1.0000
  C   C714      1.0  0.05904  0.50019  0.07349  1.0000
  C   C715      1.0  0.07330  0.50019  0.05919  1.0000
  C   C716      1.0  0.06825  0.50019  0.03965  1.0000
  C   C717      1.0  0.03960  0.50018  0.93184  1.0000
  C   C718      1.0  0.05904  0.50018  0.92672  1.0000
  C   C719      1.0  0.07330  0.50018  0.94103  1.0000
  C   C720      1.0  0.06825  0.50018  0.96056  1.0000
  N   N22       1.0  0.98009  0.50019  0.98008  1.0000
  C   C721      1.0  0.98288  0.50019  0.96040  1.0000
  N   N23       1.0  0.00010  0.50019  0.95098  1.0000
  C   C722      1.0  0.96512  0.50019  0.95128  1.0000
  C   C723      1.0  0.95136  0.50019  0.96508  1.0000
  C   C724      1.0  0.96043  0.50019  0.98286  1.0000
  C   C725      1.0  0.93198  0.50019  0.96055  1.0000
  C   C726      1.0  0.92691  0.50019  0.94102  1.0000
  C   C727      1.0  0.94120  0.50019  0.92672  1.0000
  C   C728      1.0  0.96067  0.50019  0.93184  1.0000
  N   N24       1.0  0.95101  0.50019  0.00010  1.0000
  H   H273      1.0  0.92164  0.50019  0.02903  1.0000
  H   H274      1.0  0.97128  0.50019  0.07870  1.0000
  H   H275      1.0  0.02901  0.50019  0.07870  1.0000
  H   H276      1.0  0.07855  0.50019  0.02903  1.0000
  H   H277      1.0  0.02901  0.50018  0.92151  1.0000
  H   H278      1.0  0.07854  0.50018  0.97118  1.0000
  H   H279      1.0  0.92166  0.50019  0.97117  1.0000
  H   H280      1.0  0.97128  0.50019  0.92151  1.0000
  C   C729      1.0  0.90764  0.50019  0.93572  1.0000
  C   C730      1.0  0.90251  0.50019  0.91631  1.0000
  C   C731      1.0  0.91664  0.50019  0.90216  1.0000
  C   C732      1.0  0.93596  0.50019  0.90736  1.0000
  C   C733      1.0  0.90761  0.50019  0.06449  1.0000
  C   C734      1.0  0.90247  0.50019  0.08390  1.0000
  C   C735      1.0  0.91660  0.50019  0.09804  1.0000
  C   C736      1.0  0.93594  0.50019  0.09284  1.0000
  C   C737      1.0  0.06429  0.50019  0.09286  1.0000
  C   C738      1.0  0.08360  0.50019  0.09804  1.0000
  C   C739      1.0  0.09771  0.50019  0.08388  1.0000
  C   C740      1.0  0.09256  0.50019  0.06448  1.0000
  C   C741      1.0  0.06429  0.50018  0.90735  1.0000
  C   C742      1.0  0.08358  0.50018  0.90216  1.0000
  C   C743      1.0  0.09769  0.50018  0.91630  1.0000
  C   C744      1.0  0.09255  0.50018  0.93570  1.0000
  H   H281      1.0  0.89715  0.50019  0.94617  1.0000
  O   O137      1.0  0.88371  0.50019  0.91119  1.0000
  O   O138      1.0  0.91158  0.50019  0.88328  1.0000
  H   H282      1.0  0.94640  0.50019  0.89684  1.0000
  H   H283      1.0  0.89712  0.50019  0.05405  1.0000
  O   O139      1.0  0.88367  0.50019  0.08903  1.0000
  O   O140      1.0  0.91154  0.50019  0.11693  1.0000
  H   H284      1.0  0.94636  0.50019  0.10335  1.0000
  H   H285      1.0  0.05388  0.50019  0.10336  1.0000
  O   O141      1.0  0.08868  0.50019  0.11692  1.0000
  O   O142      1.0  0.11648  0.50019  0.08901  1.0000
  H   H286      1.0  0.10303  0.50019  0.05403  1.0000
  H   H287      1.0  0.05389  0.50018  0.89686  1.0000
  O   O143      1.0  0.08867  0.50018  0.88329  1.0000
  O   O144      1.0  0.11646  0.50018  0.91118  1.0000
  H   H288      1.0  0.10303  0.50018  0.94615  1.0000
  Ni  Ni3       1.0  0.00010  0.50019  0.00010  1.0000
  Zn  Zn1       1.0  0.24216  0.24263  0.39168  1.0000
  Zn  Zn2       1.0  0.75788  0.24263  0.39169  1.0000
  Zn  Zn3       1.0  0.75786  0.75776  0.39168  1.0000
  Zn  Zn4       1.0  0.24219  0.75775  0.39168  1.0000
  Zn  Zn5       1.0  0.24219  0.75775  0.60837  1.0000
  Zn  Zn6       1.0  0.24216  0.24263  0.60837  1.0000
  Zn  Zn7       1.0  0.75788  0.24263  0.60838  1.0000
  Zn  Zn8       1.0  0.75786  0.75776  0.60838  1.0000
  Zn  Zn9       1.0  0.39158  0.24271  0.24208  1.0000
  Zn  Zn10      1.0  0.75795  0.39194  0.24259  1.0000
  Zn  Zn11      1.0  0.60846  0.75766  0.24205  1.0000
  Zn  Zn12      1.0  0.24210  0.60844  0.24257  1.0000
  Zn  Zn13      1.0  0.39159  0.75765  0.75800  1.0000
  Zn  Zn14      1.0  0.24208  0.39192  0.75747  1.0000
  Zn  Zn15      1.0  0.60846  0.24271  0.75798  1.0000
  Zn  Zn16      1.0  0.75797  0.60844  0.75747  1.0000
  Zn  Zn17      1.0  0.24209  0.39193  0.24258  1.0000
  Zn  Zn18      1.0  0.24209  0.60843  0.75747  1.0000
  Zn  Zn19      1.0  0.39159  0.24270  0.75798  1.0000
  Zn  Zn20      1.0  0.75797  0.39193  0.75748  1.0000
  Zn  Zn21      1.0  0.60846  0.75765  0.75800  1.0000
  Zn  Zn22      1.0  0.75795  0.60845  0.24258  1.0000
  Zn  Zn23      1.0  0.39159  0.75766  0.24205  1.0000
  Zn  Zn24      1.0  0.60845  0.24271  0.24209  1.0000
  Zn  Zn25      1.0  0.11537  0.11584  0.50003  1.0000
  Zn  Zn26      1.0  0.88467  0.11585  0.50003  1.0000
  Zn  Zn27      1.0  0.88465  0.88454  0.50003  1.0000
  Zn  Zn28      1.0  0.11541  0.88453  0.50002  1.0000
  Zn  Zn29      1.0  0.50002  0.11592  0.11535  1.0000
  Zn  Zn30      1.0  0.88480  0.50019  0.11590  1.0000
  Zn  Zn31      1.0  0.50002  0.88445  0.11531  1.0000
  Zn  Zn32      1.0  0.11531  0.50019  0.11581  1.0000
  Zn  Zn33      1.0  0.50003  0.88444  0.88481  1.0000
  Zn  Zn34      1.0  0.11537  0.50018  0.88431  1.0000
  Zn  Zn35      1.0  0.50002  0.11592  0.88479  1.0000
  Zn  Zn36      1.0  0.88476  0.50019  0.88424  1.0000
