data_image0
_chemical_formula_structural       C18HO2H2O2H2O2HC18HO2H2O2H2O2HC18HO2H2O2H2O2HC18HO2H2O2H2O2HC18HO2H2O2H2O2HC18HO2H2O2H2O2HC18HO2H2O2H2O2HC18HO2H2O2H2O2HC18HO2H2O2H2O2HC18HO2H2O2H2O2HC18HO2H2O2H2O2HC18HO2H2O2H2O2HC18HO2H2O2H2O2HC18HO2H2O2H2O2HC18HO2H2O2H2O2HC18HO2H2O2H2O2HC18HO2H2O2H2O2HC18HO2H2O2H2O2HC18HO2H2O2H2O2HC18HO2H2O2H2O2HC7NCNCNC3NCNC11NCNC7NH8C16HO2H2O2H2O2H2O2HNiC7NCNCNC3NCNC11NCNC7NH8C16HO2H2O2H2O2H2O2HNiC7NCNCNC3NCNC11NCNC7NH8C16HO2H2O2H2O2H2O2HNiZn36
_chemical_formula_sum              "C504 H168 O144 N24 Ni3 Zn36"
_cell_length_a       56.2682
_cell_length_b       56.391
_cell_length_c       56.3297
_cell_angle_alpha    89.9989
_cell_angle_beta     90.0011
_cell_angle_gamma    90.0011

_space_group_name_H-M_alt    "P 1"
_space_group_IT_number       1

loop_
  _space_group_symop_operation_xyz
  'x, y, z'

loop_
  _atom_site_type_symbol
  _atom_site_label
  _atom_site_symmetry_multiplicity
  _atom_site_fract_x
  _atom_site_fract_y
  _atom_site_fract_z
  _atom_site_occupancy
  C   C1        1.0  0.31158  0.33125  0.29430  1.0000
  C   C2        1.0  0.29401  0.33123  0.31189  1.0000
  C   C3        1.0  0.29402  0.31366  0.32945  1.0000
  C   C4        1.0  0.31160  0.29609  0.32940  1.0000
  C   C5        1.0  0.32918  0.29611  0.31181  1.0000
  C   C6        1.0  0.32916  0.31369  0.29426  1.0000
  C   C7        1.0  0.31162  0.27852  0.34696  1.0000
  C   C8        1.0  0.29404  0.27850  0.36455  1.0000
  C   C9        1.0  0.27646  0.29607  0.36459  1.0000
  C   C10       1.0  0.27645  0.31364  0.34704  1.0000
  C   C11       1.0  0.31156  0.34883  0.27675  1.0000
  C   C12       1.0  0.29398  0.36639  0.27679  1.0000
  C   C13       1.0  0.27641  0.36637  0.29438  1.0000
  C   C14       1.0  0.27642  0.34880  0.31194  1.0000
  C   C15       1.0  0.34674  0.31370  0.27666  1.0000
  C   C16       1.0  0.36432  0.29614  0.27662  1.0000
  C   C17       1.0  0.36433  0.27856  0.29417  1.0000
  C   C18       1.0  0.34676  0.27855  0.31177  1.0000
  H   H1        1.0  0.32481  0.26535  0.34693  1.0000
  O   O1        1.0  0.29406  0.26268  0.38035  1.0000
  O   O2        1.0  0.26064  0.29605  0.38043  1.0000
  H   H2        1.0  0.26326  0.32681  0.34707  1.0000
  H   H3        1.0  0.32474  0.34884  0.26355  1.0000
  O   O3        1.0  0.29397  0.38221  0.26099  1.0000
  O   O4        1.0  0.26058  0.38218  0.29442  1.0000
  H   H4        1.0  0.26324  0.34879  0.32513  1.0000
  H   H5        1.0  0.34673  0.32688  0.26350  1.0000
  O   O5        1.0  0.38014  0.29615  0.26078  1.0000
  O   O6        1.0  0.38016  0.26276  0.29413  1.0000
  H   H6        1.0  0.34677  0.26536  0.32493  1.0000
  C   C19       1.0  0.68893  0.29610  0.32941  1.0000
  C   C20       1.0  0.70651  0.31367  0.32946  1.0000
  C   C21       1.0  0.70653  0.33124  0.31190  1.0000
  C   C22       1.0  0.68895  0.33126  0.29431  1.0000
  C   C23       1.0  0.67137  0.31370  0.29427  1.0000
  C   C24       1.0  0.67136  0.29612  0.31182  1.0000
  C   C25       1.0  0.68897  0.34884  0.27676  1.0000
  C   C26       1.0  0.70655  0.36640  0.27680  1.0000
  C   C27       1.0  0.72413  0.36638  0.29439  1.0000
  C   C28       1.0  0.72411  0.34881  0.31195  1.0000
  C   C29       1.0  0.68892  0.27853  0.34697  1.0000
  C   C30       1.0  0.70649  0.27851  0.36456  1.0000
  C   C31       1.0  0.72407  0.29608  0.36460  1.0000
  C   C32       1.0  0.72409  0.31365  0.34705  1.0000
  C   C33       1.0  0.65377  0.27856  0.31178  1.0000
  C   C34       1.0  0.63620  0.27857  0.29418  1.0000
  C   C35       1.0  0.63621  0.29615  0.27663  1.0000
  C   C36       1.0  0.65380  0.31371  0.27667  1.0000
  H   H7        1.0  0.67579  0.34885  0.26356  1.0000
  O   O7        1.0  0.70657  0.38222  0.26100  1.0000
  O   O8        1.0  0.73995  0.38219  0.29443  1.0000
  H   H8        1.0  0.73729  0.34880  0.32514  1.0000
  H   H9        1.0  0.67573  0.26536  0.34693  1.0000
  O   O9        1.0  0.70648  0.26269  0.38036  1.0000
  O   O10       1.0  0.73989  0.29606  0.38044  1.0000
  H   H10       1.0  0.73728  0.32683  0.34708  1.0000
  H   H11       1.0  0.65376  0.26537  0.32494  1.0000
  O   O11       1.0  0.62037  0.26276  0.29414  1.0000
  O   O12       1.0  0.62040  0.29616  0.26079  1.0000
  H   H12       1.0  0.65381  0.32689  0.26351  1.0000
  C   C37       1.0  0.70651  0.69063  0.32945  1.0000
  C   C38       1.0  0.68893  0.70819  0.32940  1.0000
  C   C39       1.0  0.67135  0.70818  0.31180  1.0000
  C   C40       1.0  0.67137  0.69060  0.29425  1.0000
  C   C41       1.0  0.68896  0.67304  0.29430  1.0000
  C   C42       1.0  0.70653  0.67305  0.31189  1.0000
  C   C43       1.0  0.65380  0.69058  0.27665  1.0000
  C   C44       1.0  0.63621  0.70815  0.27661  1.0000
  C   C45       1.0  0.63620  0.72572  0.29416  1.0000
  C   C46       1.0  0.65377  0.72574  0.31176  1.0000
  C   C47       1.0  0.72408  0.69065  0.34704  1.0000
  C   C48       1.0  0.72407  0.70822  0.36459  1.0000
  C   C49       1.0  0.70648  0.72579  0.36455  1.0000
  C   C50       1.0  0.68891  0.72577  0.34695  1.0000
  C   C51       1.0  0.72411  0.65549  0.31194  1.0000
  C   C52       1.0  0.72413  0.63791  0.29439  1.0000
  C   C53       1.0  0.70656  0.63790  0.27679  1.0000
  C   C54       1.0  0.68897  0.65546  0.27675  1.0000
  H   H13       1.0  0.65381  0.67740  0.26349  1.0000
  O   O13       1.0  0.62040  0.70813  0.26077  1.0000
  O   O14       1.0  0.62037  0.74153  0.29412  1.0000
  H   H14       1.0  0.65376  0.73892  0.32492  1.0000
  H   H15       1.0  0.73727  0.67748  0.34708  1.0000
  O   O15       1.0  0.73988  0.70824  0.38043  1.0000
  O   O16       1.0  0.70647  0.74161  0.38034  1.0000
  H   H16       1.0  0.67572  0.73894  0.34692  1.0000
  H   H17       1.0  0.73729  0.65550  0.32514  1.0000
  O   O17       1.0  0.73996  0.62211  0.29443  1.0000
  O   O18       1.0  0.70657  0.62208  0.26099  1.0000
  H   H18       1.0  0.67579  0.65545  0.26355  1.0000
  C   C55       1.0  0.29402  0.67305  0.31189  1.0000
  C   C56       1.0  0.31159  0.67303  0.29429  1.0000
  C   C57       1.0  0.32917  0.69059  0.29424  1.0000
  C   C58       1.0  0.32919  0.70817  0.31180  1.0000
  C   C59       1.0  0.31162  0.70819  0.32939  1.0000
  C   C60       1.0  0.29403  0.69062  0.32944  1.0000
  C   C61       1.0  0.34678  0.72573  0.31175  1.0000
  C   C62       1.0  0.36435  0.72572  0.29416  1.0000
  C   C63       1.0  0.36433  0.70814  0.27660  1.0000
  C   C64       1.0  0.34675  0.69058  0.27665  1.0000
  C   C65       1.0  0.27643  0.65548  0.31193  1.0000
  C   C66       1.0  0.27642  0.63791  0.29438  1.0000
  C   C67       1.0  0.29399  0.63789  0.27678  1.0000
  C   C68       1.0  0.31157  0.65545  0.27674  1.0000
  C   C69       1.0  0.27646  0.69064  0.34704  1.0000
  C   C70       1.0  0.27648  0.70821  0.36459  1.0000
  C   C71       1.0  0.29407  0.72578  0.36454  1.0000
  C   C72       1.0  0.31164  0.72576  0.34695  1.0000
  H   H19       1.0  0.34679  0.73892  0.32492  1.0000
  O   O19       1.0  0.38018  0.74152  0.29411  1.0000
  O   O20       1.0  0.38014  0.70813  0.26077  1.0000
  H   H20       1.0  0.34673  0.67740  0.26348  1.0000
  H   H21       1.0  0.26325  0.65549  0.32513  1.0000
  O   O21       1.0  0.26059  0.62210  0.29442  1.0000
  O   O22       1.0  0.29397  0.62207  0.26099  1.0000
  H   H22       1.0  0.32475  0.65544  0.26354  1.0000
  H   H23       1.0  0.26327  0.67747  0.34707  1.0000
  O   O23       1.0  0.26067  0.70823  0.38042  1.0000
  O   O24       1.0  0.29408  0.74160  0.38034  1.0000
  H   H24       1.0  0.32483  0.73893  0.34691  1.0000
  C   C73       1.0  0.31162  0.70818  0.67144  1.0000
  C   C74       1.0  0.29404  0.69061  0.67139  1.0000
  C   C75       1.0  0.29402  0.67304  0.68894  1.0000
  C   C76       1.0  0.31159  0.67302  0.70654  1.0000
  C   C77       1.0  0.32918  0.69058  0.70659  1.0000
  C   C78       1.0  0.32919  0.70816  0.68903  1.0000
  C   C79       1.0  0.31157  0.65544  0.72409  1.0000
  C   C80       1.0  0.29398  0.63788  0.72405  1.0000
  C   C81       1.0  0.27641  0.63790  0.70645  1.0000
  C   C82       1.0  0.27643  0.65548  0.68890  1.0000
  C   C83       1.0  0.31164  0.72575  0.65388  1.0000
  C   C84       1.0  0.29407  0.72577  0.63629  1.0000
  C   C85       1.0  0.27648  0.70821  0.63624  1.0000
  C   C86       1.0  0.27647  0.69063  0.65379  1.0000
  C   C87       1.0  0.34678  0.72572  0.68908  1.0000
  C   C88       1.0  0.36435  0.72570  0.70668  1.0000
  C   C89       1.0  0.36433  0.70813  0.72423  1.0000
  C   C90       1.0  0.34675  0.69056  0.72418  1.0000
  H   H25       1.0  0.32475  0.65543  0.73729  1.0000
  O   O25       1.0  0.29397  0.62206  0.73984  1.0000
  O   O26       1.0  0.26058  0.62209  0.70641  1.0000
  H   H26       1.0  0.26325  0.65549  0.67570  1.0000
  H   H27       1.0  0.32483  0.73892  0.65392  1.0000
  O   O27       1.0  0.29409  0.74159  0.62049  1.0000
  O   O28       1.0  0.26067  0.70822  0.62040  1.0000
  H   H28       1.0  0.26327  0.67746  0.65376  1.0000
  H   H29       1.0  0.34679  0.73890  0.67592  1.0000
  O   O29       1.0  0.38018  0.74151  0.70672  1.0000
  O   O30       1.0  0.38015  0.70811  0.74007  1.0000
  H   H30       1.0  0.34673  0.67738  0.73735  1.0000
  C   C91       1.0  0.31157  0.33124  0.70655  1.0000
  C   C92       1.0  0.29400  0.33123  0.68895  1.0000
  C   C93       1.0  0.29402  0.31365  0.67140  1.0000
  C   C94       1.0  0.31160  0.29609  0.67144  1.0000
  C   C95       1.0  0.32917  0.29611  0.68904  1.0000
  C   C96       1.0  0.32916  0.31368  0.70659  1.0000
  C   C97       1.0  0.31162  0.27851  0.65389  1.0000
  C   C98       1.0  0.29405  0.27850  0.63629  1.0000
  C   C99       1.0  0.27646  0.29606  0.63625  1.0000
  C   C100      1.0  0.27644  0.31364  0.65380  1.0000
  C   C101      1.0  0.31156  0.34882  0.72410  1.0000
  C   C102      1.0  0.29397  0.36638  0.72405  1.0000
  C   C103      1.0  0.27640  0.36637  0.70646  1.0000
  C   C104      1.0  0.27642  0.34879  0.68891  1.0000
  C   C105      1.0  0.34673  0.31370  0.72418  1.0000
  C   C106      1.0  0.36432  0.29614  0.72423  1.0000
  C   C107      1.0  0.36433  0.27856  0.70668  1.0000
  C   C108      1.0  0.34676  0.27854  0.68908  1.0000
  H   H31       1.0  0.32481  0.26534  0.65392  1.0000
  O   O31       1.0  0.29406  0.26268  0.62050  1.0000
  O   O32       1.0  0.26064  0.29605  0.62041  1.0000
  H   H32       1.0  0.26325  0.32681  0.65377  1.0000
  H   H33       1.0  0.32474  0.34883  0.73729  1.0000
  O   O33       1.0  0.29396  0.38220  0.73985  1.0000
  O   O34       1.0  0.26057  0.38217  0.70642  1.0000
  H   H34       1.0  0.26324  0.34878  0.67571  1.0000
  H   H35       1.0  0.34672  0.32688  0.73735  1.0000
  O   O35       1.0  0.38013  0.29615  0.74006  1.0000
  O   O36       1.0  0.38016  0.26275  0.70672  1.0000
  H   H36       1.0  0.34677  0.26536  0.67592  1.0000
  C   C109      1.0  0.68894  0.29610  0.67145  1.0000
  C   C110      1.0  0.70653  0.31366  0.67140  1.0000
  C   C111      1.0  0.70655  0.33124  0.68895  1.0000
  C   C112      1.0  0.68897  0.33125  0.70655  1.0000
  C   C113      1.0  0.67139  0.31369  0.70659  1.0000
  C   C114      1.0  0.67137  0.29611  0.68904  1.0000
  C   C115      1.0  0.68899  0.34883  0.72410  1.0000
  C   C116      1.0  0.70658  0.36639  0.72406  1.0000
  C   C117      1.0  0.72415  0.36637  0.70646  1.0000
  C   C118      1.0  0.72413  0.34880  0.68891  1.0000
  C   C119      1.0  0.68893  0.27852  0.65389  1.0000
  C   C120      1.0  0.70650  0.27851  0.63630  1.0000
  C   C121      1.0  0.72409  0.29607  0.63625  1.0000
  C   C122      1.0  0.72410  0.31364  0.65381  1.0000
  C   C123      1.0  0.65378  0.27855  0.68908  1.0000
  C   C124      1.0  0.63621  0.27857  0.70668  1.0000
  C   C125      1.0  0.63623  0.29614  0.72423  1.0000
  C   C126      1.0  0.65382  0.31370  0.72419  1.0000
  H   H37       1.0  0.67581  0.34884  0.73730  1.0000
  O   O37       1.0  0.70659  0.38221  0.73986  1.0000
  O   O38       1.0  0.73998  0.38218  0.70642  1.0000
  H   H38       1.0  0.73731  0.34879  0.67571  1.0000
  H   H39       1.0  0.67574  0.26535  0.65393  1.0000
  O   O39       1.0  0.70649  0.26269  0.62050  1.0000
  O   O40       1.0  0.73990  0.29605  0.62042  1.0000
  H   H40       1.0  0.73729  0.32682  0.65377  1.0000
  H   H41       1.0  0.65377  0.26537  0.67592  1.0000
  O   O41       1.0  0.62039  0.26276  0.70672  1.0000
  O   O42       1.0  0.62041  0.29616  0.74007  1.0000
  H   H42       1.0  0.65383  0.32689  0.73735  1.0000
  C   C127      1.0  0.68897  0.67303  0.70655  1.0000
  C   C128      1.0  0.70654  0.67305  0.68895  1.0000
  C   C129      1.0  0.70652  0.69063  0.67140  1.0000
  C   C130      1.0  0.68894  0.70819  0.67144  1.0000
  C   C131      1.0  0.67137  0.70817  0.68904  1.0000
  C   C132      1.0  0.67138  0.69059  0.70659  1.0000
  C   C133      1.0  0.68892  0.72576  0.65389  1.0000
  C   C134      1.0  0.70649  0.72578  0.63630  1.0000
  C   C135      1.0  0.72408  0.70822  0.63625  1.0000
  C   C136      1.0  0.72409  0.69064  0.65380  1.0000
  C   C137      1.0  0.68899  0.65545  0.72410  1.0000
  C   C138      1.0  0.70658  0.63789  0.72405  1.0000
  C   C139      1.0  0.72415  0.63791  0.70646  1.0000
  C   C140      1.0  0.72413  0.65549  0.68890  1.0000
  C   C141      1.0  0.65381  0.69057  0.72419  1.0000
  C   C142      1.0  0.63623  0.70813  0.72424  1.0000
  C   C143      1.0  0.63621  0.72571  0.70669  1.0000
  C   C144      1.0  0.65378  0.72573  0.68909  1.0000
  H   H43       1.0  0.67573  0.73893  0.65393  1.0000
  O   O43       1.0  0.70647  0.74160  0.62050  1.0000
  O   O44       1.0  0.73989  0.70824  0.62041  1.0000
  H   H44       1.0  0.73728  0.67747  0.65377  1.0000
  H   H45       1.0  0.67581  0.65544  0.73730  1.0000
  O   O45       1.0  0.70659  0.62207  0.73985  1.0000
  O   O46       1.0  0.73998  0.62211  0.70642  1.0000
  H   H46       1.0  0.73731  0.65550  0.67571  1.0000
  H   H47       1.0  0.65383  0.67739  0.73735  1.0000
  O   O47       1.0  0.62041  0.70812  0.74007  1.0000
  O   O48       1.0  0.62038  0.74152  0.70673  1.0000
  H   H48       1.0  0.65377  0.73891  0.67592  1.0000
  C   C145      1.0  0.23433  0.23663  0.52527  1.0000
  C   C146      1.0  0.24955  0.25185  0.51285  1.0000
  C   C147      1.0  0.24955  0.25185  0.48799  1.0000
  C   C148      1.0  0.23433  0.23663  0.47557  1.0000
  C   C149      1.0  0.21912  0.22140  0.48799  1.0000
  C   C150      1.0  0.21912  0.22140  0.51285  1.0000
  C   C151      1.0  0.23433  0.23663  0.45071  1.0000
  C   C152      1.0  0.24955  0.25186  0.43829  1.0000
  C   C153      1.0  0.26476  0.26708  0.45071  1.0000
  C   C154      1.0  0.26476  0.26708  0.47557  1.0000
  C   C155      1.0  0.23433  0.23663  0.55013  1.0000
  C   C156      1.0  0.24955  0.25185  0.56255  1.0000
  C   C157      1.0  0.26476  0.26708  0.55013  1.0000
  C   C158      1.0  0.26476  0.26708  0.52527  1.0000
  C   C159      1.0  0.20390  0.20618  0.52527  1.0000
  C   C160      1.0  0.18869  0.19095  0.51285  1.0000
  C   C161      1.0  0.18869  0.19095  0.48799  1.0000
  C   C162      1.0  0.20390  0.20618  0.47557  1.0000
  H   H49       1.0  0.22292  0.22521  0.44139  1.0000
  O   O49       1.0  0.24955  0.25186  0.41592  1.0000
  O   O50       1.0  0.27846  0.28078  0.43953  1.0000
  H   H50       1.0  0.27617  0.27850  0.48489  1.0000
  H   H51       1.0  0.22292  0.22521  0.55945  1.0000
  O   O51       1.0  0.24955  0.25185  0.58492  1.0000
  O   O52       1.0  0.27846  0.28078  0.56131  1.0000
  H   H52       1.0  0.27617  0.27850  0.51595  1.0000
  H   H53       1.0  0.20390  0.20618  0.54391  1.0000
  O   O53       1.0  0.17499  0.17725  0.52403  1.0000
  O   O54       1.0  0.17500  0.17725  0.47681  1.0000
  H   H54       1.0  0.20390  0.20618  0.45693  1.0000
  C   C163      1.0  0.75099  0.25186  0.51285  1.0000
  C   C164      1.0  0.76621  0.23664  0.52528  1.0000
  C   C165      1.0  0.78142  0.22141  0.51285  1.0000
  C   C166      1.0  0.78142  0.22141  0.48800  1.0000
  C   C167      1.0  0.76620  0.23664  0.47557  1.0000
  C   C168      1.0  0.75099  0.25186  0.48800  1.0000
  C   C169      1.0  0.79663  0.20619  0.47557  1.0000
  C   C170      1.0  0.81185  0.19096  0.48800  1.0000
  C   C171      1.0  0.81185  0.19096  0.51285  1.0000
  C   C172      1.0  0.79664  0.20619  0.52528  1.0000
  C   C173      1.0  0.73578  0.26709  0.52528  1.0000
  C   C174      1.0  0.73578  0.26708  0.55013  1.0000
  C   C175      1.0  0.75099  0.25186  0.56256  1.0000
  C   C176      1.0  0.76621  0.23664  0.55013  1.0000
  C   C177      1.0  0.73578  0.26709  0.47557  1.0000
  C   C178      1.0  0.73577  0.26709  0.45072  1.0000
  C   C179      1.0  0.75099  0.25186  0.43829  1.0000
  C   C180      1.0  0.76620  0.23664  0.45072  1.0000
  H   H55       1.0  0.79663  0.20619  0.45693  1.0000
  O   O55       1.0  0.82554  0.17726  0.47681  1.0000
  O   O56       1.0  0.82554  0.17726  0.52404  1.0000
  H   H56       1.0  0.79664  0.20619  0.54392  1.0000
  H   H57       1.0  0.72437  0.27850  0.51596  1.0000
  O   O57       1.0  0.72209  0.28079  0.56132  1.0000
  O   O58       1.0  0.75099  0.25186  0.58493  1.0000
  H   H58       1.0  0.77762  0.22522  0.55945  1.0000
  H   H59       1.0  0.72436  0.27850  0.48489  1.0000
  O   O59       1.0  0.72208  0.28079  0.43954  1.0000
  O   O60       1.0  0.75099  0.25186  0.41592  1.0000
  H   H60       1.0  0.77761  0.22522  0.44140  1.0000
  C   C181      1.0  0.75096  0.75245  0.48799  1.0000
  C   C182      1.0  0.76617  0.76767  0.47557  1.0000
  C   C183      1.0  0.78139  0.78290  0.48799  1.0000
  C   C184      1.0  0.78139  0.78289  0.51285  1.0000
  C   C185      1.0  0.76617  0.76767  0.52527  1.0000
  C   C186      1.0  0.75096  0.75244  0.51285  1.0000
  C   C187      1.0  0.79660  0.79812  0.52527  1.0000
  C   C188      1.0  0.81182  0.81334  0.51285  1.0000
  C   C189      1.0  0.81182  0.81335  0.48799  1.0000
  C   C190      1.0  0.79660  0.79812  0.47557  1.0000
  C   C191      1.0  0.73574  0.73722  0.47557  1.0000
  C   C192      1.0  0.73574  0.73722  0.45071  1.0000
  C   C193      1.0  0.75096  0.75245  0.43829  1.0000
  C   C194      1.0  0.76617  0.76767  0.45071  1.0000
  C   C195      1.0  0.73574  0.73722  0.52527  1.0000
  C   C196      1.0  0.73575  0.73722  0.55013  1.0000
  C   C197      1.0  0.75096  0.75244  0.56255  1.0000
  C   C198      1.0  0.76618  0.76767  0.55013  1.0000
  H   H61       1.0  0.79660  0.79812  0.54391  1.0000
  O   O61       1.0  0.82551  0.82705  0.52403  1.0000
  O   O62       1.0  0.82551  0.82705  0.47681  1.0000
  H   H62       1.0  0.79660  0.79812  0.45693  1.0000
  H   H63       1.0  0.72433  0.72580  0.48489  1.0000
  O   O63       1.0  0.72205  0.72352  0.43953  1.0000
  O   O64       1.0  0.75096  0.75245  0.41592  1.0000
  H   H64       1.0  0.77758  0.77909  0.44139  1.0000
  H   H65       1.0  0.72433  0.72580  0.51595  1.0000
  O   O65       1.0  0.72205  0.72352  0.56131  1.0000
  O   O66       1.0  0.75096  0.75244  0.58492  1.0000
  H   H66       1.0  0.77759  0.77909  0.55945  1.0000
  C   C199      1.0  0.23438  0.76765  0.52527  1.0000
  C   C200      1.0  0.24959  0.75243  0.51284  1.0000
  C   C201      1.0  0.24959  0.75243  0.48799  1.0000
  C   C202      1.0  0.23438  0.76766  0.47556  1.0000
  C   C203      1.0  0.21916  0.78288  0.48799  1.0000
  C   C204      1.0  0.21916  0.78288  0.51284  1.0000
  C   C205      1.0  0.23437  0.76766  0.45071  1.0000
  C   C206      1.0  0.24959  0.75243  0.43828  1.0000
  C   C207      1.0  0.26480  0.73721  0.45071  1.0000
  C   C208      1.0  0.26480  0.73721  0.47556  1.0000
  C   C209      1.0  0.23438  0.76765  0.55012  1.0000
  C   C210      1.0  0.24959  0.75243  0.56255  1.0000
  C   C211      1.0  0.26480  0.73720  0.55012  1.0000
  C   C212      1.0  0.26480  0.73720  0.52527  1.0000
  C   C213      1.0  0.20395  0.79810  0.52527  1.0000
  C   C214      1.0  0.18873  0.81333  0.51284  1.0000
  C   C215      1.0  0.18873  0.81333  0.48799  1.0000
  C   C216      1.0  0.20395  0.79810  0.47556  1.0000
  H   H67       1.0  0.22296  0.77908  0.44139  1.0000
  O   O67       1.0  0.24959  0.75243  0.41591  1.0000
  O   O68       1.0  0.27850  0.72351  0.43952  1.0000
  H   H68       1.0  0.27622  0.72579  0.48488  1.0000
  H   H69       1.0  0.22297  0.77907  0.55944  1.0000
  O   O69       1.0  0.24959  0.75243  0.58492  1.0000
  O   O70       1.0  0.27850  0.72350  0.56131  1.0000
  H   H70       1.0  0.27622  0.72579  0.51595  1.0000
  H   H71       1.0  0.20395  0.79810  0.54391  1.0000
  O   O71       1.0  0.17504  0.82703  0.52403  1.0000
  O   O72       1.0  0.17504  0.82703  0.47680  1.0000
  H   H72       1.0  0.20395  0.79811  0.45692  1.0000
  C   C217      1.0  0.47539  0.23673  0.23427  1.0000
  C   C218      1.0  0.48783  0.25194  0.24948  1.0000
  C   C219      1.0  0.51271  0.25194  0.24948  1.0000
  C   C220      1.0  0.52515  0.23673  0.23427  1.0000
  C   C221      1.0  0.51271  0.22152  0.21906  1.0000
  C   C222      1.0  0.48783  0.22152  0.21906  1.0000
  C   C223      1.0  0.55003  0.23673  0.23427  1.0000
  C   C224      1.0  0.56247  0.25195  0.24948  1.0000
  C   C225      1.0  0.55003  0.26716  0.26469  1.0000
  C   C226      1.0  0.52515  0.26716  0.26469  1.0000
  C   C227      1.0  0.45051  0.23673  0.23427  1.0000
  C   C228      1.0  0.43807  0.25194  0.24948  1.0000
  C   C229      1.0  0.45051  0.26716  0.26469  1.0000
  C   C230      1.0  0.47539  0.26716  0.26469  1.0000
  C   C231      1.0  0.47539  0.20630  0.20385  1.0000
  C   C232      1.0  0.48783  0.19109  0.18864  1.0000
  C   C233      1.0  0.51271  0.19109  0.18864  1.0000
  C   C234      1.0  0.52515  0.20630  0.20385  1.0000
  H   H73       1.0  0.55936  0.22532  0.22287  1.0000
  O   O73       1.0  0.58486  0.25195  0.24948  1.0000
  O   O74       1.0  0.56123  0.28085  0.27838  1.0000
  H   H74       1.0  0.51582  0.27857  0.27609  1.0000
  H   H75       1.0  0.44118  0.22532  0.22286  1.0000
  O   O75       1.0  0.41567  0.25194  0.24948  1.0000
  O   O76       1.0  0.43931  0.28085  0.27837  1.0000
  H   H76       1.0  0.48472  0.27857  0.27609  1.0000
  H   H77       1.0  0.45673  0.20630  0.20385  1.0000
  O   O77       1.0  0.47663  0.17739  0.17496  1.0000
  O   O78       1.0  0.52391  0.17740  0.17496  1.0000
  H   H78       1.0  0.54381  0.20630  0.20385  1.0000
  C   C235      1.0  0.75106  0.51456  0.25039  1.0000
  C   C236      1.0  0.76628  0.52697  0.23516  1.0000
  C   C237      1.0  0.78151  0.51456  0.21993  1.0000
  C   C238      1.0  0.78151  0.48974  0.21993  1.0000
  C   C239      1.0  0.76628  0.47732  0.23516  1.0000
  C   C240      1.0  0.75106  0.48973  0.25039  1.0000
  C   C241      1.0  0.79673  0.47732  0.20470  1.0000
  C   C242      1.0  0.81196  0.48974  0.18947  1.0000
  C   C243      1.0  0.81196  0.51456  0.18947  1.0000
  C   C244      1.0  0.79673  0.52698  0.20470  1.0000
  C   C245      1.0  0.73583  0.52697  0.26562  1.0000
  C   C246      1.0  0.73583  0.55180  0.26562  1.0000
  C   C247      1.0  0.75106  0.56421  0.25039  1.0000
  C   C248      1.0  0.76628  0.55180  0.23516  1.0000
  C   C249      1.0  0.73583  0.47732  0.26562  1.0000
  C   C250      1.0  0.73583  0.45249  0.26563  1.0000
  C   C251      1.0  0.75106  0.44008  0.25040  1.0000
  C   C252      1.0  0.76628  0.45249  0.23516  1.0000
  H   H79       1.0  0.79673  0.45870  0.20470  1.0000
  O   O79       1.0  0.82566  0.47856  0.17577  1.0000
  O   O80       1.0  0.82566  0.52573  0.17576  1.0000
  H   H80       1.0  0.79673  0.54560  0.20470  1.0000
  H   H81       1.0  0.72441  0.51766  0.27705  1.0000
  O   O81       1.0  0.72213  0.56297  0.27933  1.0000
  O   O82       1.0  0.75106  0.58656  0.25039  1.0000
  H   H82       1.0  0.77770  0.56111  0.22374  1.0000
  H   H83       1.0  0.72441  0.48663  0.27705  1.0000
  O   O83       1.0  0.72213  0.44132  0.27933  1.0000
  O   O84       1.0  0.75106  0.41774  0.25040  1.0000
  H   H84       1.0  0.77770  0.44319  0.22374  1.0000
  C   C253      1.0  0.51271  0.75233  0.24944  1.0000
  C   C254      1.0  0.52515  0.76754  0.23423  1.0000
  C   C255      1.0  0.51271  0.78276  0.21902  1.0000
  C   C256      1.0  0.48783  0.78276  0.21902  1.0000
  C   C257      1.0  0.47539  0.76754  0.23423  1.0000
  C   C258      1.0  0.48783  0.75233  0.24944  1.0000
  C   C259      1.0  0.47539  0.79797  0.20381  1.0000
  C   C260      1.0  0.48783  0.81319  0.18860  1.0000
  C   C261      1.0  0.51271  0.81319  0.18860  1.0000
  C   C262      1.0  0.52515  0.79797  0.20381  1.0000
  C   C263      1.0  0.52515  0.73712  0.26465  1.0000
  C   C264      1.0  0.55003  0.73712  0.26465  1.0000
  C   C265      1.0  0.56247  0.75233  0.24944  1.0000
  C   C266      1.0  0.55003  0.76754  0.23423  1.0000
  C   C267      1.0  0.47539  0.73712  0.26465  1.0000
  C   C268      1.0  0.45051  0.73712  0.26465  1.0000
  C   C269      1.0  0.43807  0.75233  0.24944  1.0000
  C   C270      1.0  0.45051  0.76754  0.23423  1.0000
  H   H85       1.0  0.45673  0.79797  0.20381  1.0000
  O   O85       1.0  0.47664  0.82688  0.17491  1.0000
  O   O86       1.0  0.52391  0.82688  0.17491  1.0000
  H   H86       1.0  0.54381  0.79797  0.20381  1.0000
  H   H87       1.0  0.51582  0.72571  0.27605  1.0000
  O   O87       1.0  0.56123  0.72343  0.27834  1.0000
  O   O88       1.0  0.58487  0.75233  0.24944  1.0000
  H   H88       1.0  0.55936  0.77896  0.22282  1.0000
  H   H89       1.0  0.48472  0.72571  0.27605  1.0000
  O   O89       1.0  0.43931  0.72342  0.27833  1.0000
  O   O90       1.0  0.41568  0.75233  0.24944  1.0000
  H   H90       1.0  0.44118  0.77895  0.22282  1.0000
  C   C271      1.0  0.23426  0.47731  0.23515  1.0000
  C   C272      1.0  0.24948  0.48973  0.25038  1.0000
  C   C273      1.0  0.24948  0.51455  0.25038  1.0000
  C   C274      1.0  0.23426  0.52697  0.23515  1.0000
  C   C275      1.0  0.21903  0.51455  0.21992  1.0000
  C   C276      1.0  0.21903  0.48973  0.21992  1.0000
  C   C277      1.0  0.23426  0.55179  0.23515  1.0000
  C   C278      1.0  0.24949  0.56421  0.25038  1.0000
  C   C279      1.0  0.26471  0.55179  0.26561  1.0000
  C   C280      1.0  0.26471  0.52697  0.26561  1.0000
  C   C281      1.0  0.23426  0.45249  0.23515  1.0000
  C   C282      1.0  0.24948  0.44007  0.25038  1.0000
  C   C283      1.0  0.26471  0.45249  0.26561  1.0000
  C   C284      1.0  0.26471  0.47731  0.26561  1.0000
  C   C285      1.0  0.20381  0.47732  0.20469  1.0000
  C   C286      1.0  0.18858  0.48973  0.18946  1.0000
  C   C287      1.0  0.18858  0.51456  0.18946  1.0000
  C   C288      1.0  0.20381  0.52697  0.20469  1.0000
  H   H91       1.0  0.22284  0.56110  0.22373  1.0000
  O   O91       1.0  0.24949  0.58655  0.25038  1.0000
  O   O92       1.0  0.27842  0.56296  0.27932  1.0000
  H   H92       1.0  0.27613  0.51766  0.27703  1.0000
  H   H93       1.0  0.22284  0.44318  0.22373  1.0000
  O   O93       1.0  0.24948  0.41773  0.25038  1.0000
  O   O94       1.0  0.27841  0.44131  0.27932  1.0000
  H   H94       1.0  0.27613  0.48662  0.27703  1.0000
  H   H95       1.0  0.20381  0.45870  0.20469  1.0000
  O   O95       1.0  0.17488  0.47856  0.17575  1.0000
  O   O96       1.0  0.17488  0.52573  0.17575  1.0000
  H   H96       1.0  0.20381  0.54559  0.20469  1.0000
  C   C289      1.0  0.51272  0.75232  0.75140  1.0000
  C   C290      1.0  0.52516  0.76753  0.76661  1.0000
  C   C291      1.0  0.51272  0.78275  0.78182  1.0000
  C   C292      1.0  0.48784  0.78275  0.78182  1.0000
  C   C293      1.0  0.47540  0.76753  0.76661  1.0000
  C   C294      1.0  0.48784  0.75232  0.75140  1.0000
  C   C295      1.0  0.47540  0.79796  0.79703  1.0000
  C   C296      1.0  0.48784  0.81317  0.81224  1.0000
  C   C297      1.0  0.51272  0.81317  0.81224  1.0000
  C   C298      1.0  0.52516  0.79796  0.79703  1.0000
  C   C299      1.0  0.52516  0.73710  0.73619  1.0000
  C   C300      1.0  0.55004  0.73711  0.73619  1.0000
  C   C301      1.0  0.56248  0.75232  0.75140  1.0000
  C   C302      1.0  0.55004  0.76753  0.76661  1.0000
  C   C303      1.0  0.47540  0.73710  0.73619  1.0000
  C   C304      1.0  0.45052  0.73710  0.73619  1.0000
  C   C305      1.0  0.43808  0.75232  0.75140  1.0000
  C   C306      1.0  0.45052  0.76753  0.76661  1.0000
  H   H97       1.0  0.45674  0.79796  0.79703  1.0000
  O   O97       1.0  0.47664  0.82686  0.82592  1.0000
  O   O98       1.0  0.52391  0.82687  0.82593  1.0000
  H   H98       1.0  0.54382  0.79796  0.79703  1.0000
  H   H99       1.0  0.51583  0.72569  0.72479  1.0000
  O   O99       1.0  0.56124  0.72341  0.72251  1.0000
  O   O100      1.0  0.58487  0.75232  0.75140  1.0000
  H   H100      1.0  0.55937  0.77894  0.77802  1.0000
  H   H101      1.0  0.48473  0.72569  0.72479  1.0000
  O   O101      1.0  0.43932  0.72341  0.72250  1.0000
  O   O102      1.0  0.41568  0.75232  0.75140  1.0000
  H   H102      1.0  0.44119  0.77894  0.77802  1.0000
  C   C307      1.0  0.23423  0.47731  0.76567  1.0000
  C   C308      1.0  0.24946  0.48972  0.75044  1.0000
  C   C309      1.0  0.24946  0.51455  0.75044  1.0000
  C   C310      1.0  0.23423  0.52696  0.76567  1.0000
  C   C311      1.0  0.21901  0.51455  0.78090  1.0000
  C   C312      1.0  0.21901  0.48972  0.78090  1.0000
  C   C313      1.0  0.23424  0.55179  0.76567  1.0000
  C   C314      1.0  0.24946  0.56420  0.75044  1.0000
  C   C315      1.0  0.26469  0.55179  0.73521  1.0000
  C   C316      1.0  0.26469  0.52696  0.73521  1.0000
  C   C317      1.0  0.23423  0.45248  0.76567  1.0000
  C   C318      1.0  0.24946  0.44007  0.75044  1.0000
  C   C319      1.0  0.26468  0.45248  0.73521  1.0000
  C   C320      1.0  0.26468  0.47731  0.73521  1.0000
  C   C321      1.0  0.20378  0.47731  0.79613  1.0000
  C   C322      1.0  0.18856  0.48972  0.81136  1.0000
  C   C323      1.0  0.18856  0.51455  0.81136  1.0000
  C   C324      1.0  0.20378  0.52696  0.79613  1.0000
  H   H103      1.0  0.22282  0.56110  0.77709  1.0000
  O   O103      1.0  0.24946  0.58654  0.75044  1.0000
  O   O104      1.0  0.27839  0.56296  0.72150  1.0000
  H   H104      1.0  0.27610  0.51765  0.72379  1.0000
  H   H105      1.0  0.22281  0.44317  0.77709  1.0000
  O   O105      1.0  0.24945  0.41772  0.75044  1.0000
  O   O106      1.0  0.27838  0.44131  0.72150  1.0000
  H   H106      1.0  0.27610  0.48662  0.72379  1.0000
  H   H107      1.0  0.20378  0.45869  0.79613  1.0000
  O   O107      1.0  0.17485  0.47855  0.82507  1.0000
  O   O108      1.0  0.17486  0.52572  0.82507  1.0000
  H   H108      1.0  0.20379  0.54558  0.79613  1.0000
  C   C325      1.0  0.47539  0.23673  0.76659  1.0000
  C   C326      1.0  0.48783  0.25194  0.75138  1.0000
  C   C327      1.0  0.51271  0.25194  0.75138  1.0000
  C   C328      1.0  0.52515  0.23673  0.76659  1.0000
  C   C329      1.0  0.51271  0.22151  0.78179  1.0000
  C   C330      1.0  0.48783  0.22151  0.78179  1.0000
  C   C331      1.0  0.55004  0.23673  0.76659  1.0000
  C   C332      1.0  0.56248  0.25194  0.75138  1.0000
  C   C333      1.0  0.55004  0.26716  0.73617  1.0000
  C   C334      1.0  0.52515  0.26715  0.73617  1.0000
  C   C335      1.0  0.45051  0.23672  0.76658  1.0000
  C   C336      1.0  0.43807  0.25194  0.75138  1.0000
  C   C337      1.0  0.45051  0.26715  0.73617  1.0000
  C   C338      1.0  0.47539  0.26715  0.73617  1.0000
  C   C339      1.0  0.47539  0.20630  0.79700  1.0000
  C   C340      1.0  0.48783  0.19108  0.81221  1.0000
  C   C341      1.0  0.51271  0.19108  0.81221  1.0000
  C   C342      1.0  0.52515  0.20630  0.79700  1.0000
  H   H109      1.0  0.55937  0.22532  0.77799  1.0000
  O   O109      1.0  0.58487  0.25194  0.75138  1.0000
  O   O110      1.0  0.56123  0.28085  0.72248  1.0000
  H   H110      1.0  0.51582  0.27857  0.72476  1.0000
  H   H111      1.0  0.44118  0.22531  0.77799  1.0000
  O   O111      1.0  0.41568  0.25194  0.75138  1.0000
  O   O112      1.0  0.43932  0.28085  0.72248  1.0000
  H   H112      1.0  0.48472  0.27857  0.72476  1.0000
  H   H113      1.0  0.45673  0.20630  0.79700  1.0000
  O   O113      1.0  0.47664  0.17739  0.82590  1.0000
  O   O114      1.0  0.52391  0.17739  0.82590  1.0000
  H   H114      1.0  0.54382  0.20630  0.79700  1.0000
  C   C343      1.0  0.75110  0.48973  0.75044  1.0000
  C   C344      1.0  0.76632  0.47732  0.76567  1.0000
  C   C345      1.0  0.78155  0.48973  0.78090  1.0000
  C   C346      1.0  0.78155  0.51456  0.78090  1.0000
  C   C347      1.0  0.76632  0.52697  0.76567  1.0000
  C   C348      1.0  0.75110  0.51456  0.75044  1.0000
  C   C349      1.0  0.79677  0.52697  0.79613  1.0000
  C   C350      1.0  0.81200  0.51456  0.81136  1.0000
  C   C351      1.0  0.81200  0.48973  0.81137  1.0000
  C   C352      1.0  0.79677  0.47732  0.79613  1.0000
  C   C353      1.0  0.73587  0.47731  0.73521  1.0000
  C   C354      1.0  0.73587  0.45249  0.73521  1.0000
  C   C355      1.0  0.75110  0.44008  0.75044  1.0000
  C   C356      1.0  0.76632  0.45249  0.76567  1.0000
  C   C357      1.0  0.73587  0.52697  0.73521  1.0000
  C   C358      1.0  0.73587  0.55179  0.73521  1.0000
  C   C359      1.0  0.75110  0.56421  0.75044  1.0000
  C   C360      1.0  0.76632  0.55180  0.76567  1.0000
  H   H115      1.0  0.79677  0.54559  0.79613  1.0000
  O   O115      1.0  0.82570  0.52573  0.82507  1.0000
  O   O116      1.0  0.82570  0.47856  0.82507  1.0000
  H   H116      1.0  0.79677  0.45870  0.79613  1.0000
  H   H117      1.0  0.72445  0.48662  0.72379  1.0000
  O   O117      1.0  0.72217  0.44132  0.72150  1.0000
  O   O118      1.0  0.75110  0.41773  0.75044  1.0000
  H   H118      1.0  0.77774  0.44318  0.77710  1.0000
  H   H119      1.0  0.72445  0.51766  0.72379  1.0000
  O   O119      1.0  0.72217  0.56297  0.72150  1.0000
  O   O120      1.0  0.75109  0.58655  0.75044  1.0000
  H   H120      1.0  0.77774  0.56111  0.77710  1.0000
  C   C361      1.0  0.09311  0.94834  0.50042  1.0000
  C   C362      1.0  0.10000  0.92176  0.50042  1.0000
  C   C363      1.0  0.08052  0.90230  0.50042  1.0000
  C   C364      1.0  0.05400  0.90925  0.50042  1.0000
  C   C365      1.0  0.04793  0.93571  0.50042  1.0000
  C   C366      1.0  0.06670  0.95448  0.50042  1.0000
  C   C367      1.0  0.05433  0.97867  0.50042  1.0000
  N   N1        1.0  0.02752  0.97490  0.50042  1.0000
  C   C368      1.0  0.02373  0.94810  0.50042  1.0000
  N   N2        1.0  0.00010  0.93528  0.50042  1.0000
  C   C369      1.0  0.97672  0.94809  0.50042  1.0000
  N   N3        1.0  0.97294  0.97490  0.50042  1.0000
  C   C370      1.0  0.94617  0.97869  0.50042  1.0000
  C   C371      1.0  0.93381  0.95448  0.50042  1.0000
  C   C372      1.0  0.95253  0.93570  0.50042  1.0000
  N   N4        1.0  0.97293  0.02938  0.50042  1.0000
  C   C373      1.0  0.94618  0.02559  0.50042  1.0000
  N   N5        1.0  0.93337  0.00215  0.50042  1.0000
  C   C374      1.0  0.93381  0.04981  0.50042  1.0000
  C   C375      1.0  0.95255  0.06857  0.50042  1.0000
  C   C376      1.0  0.97672  0.05618  0.50042  1.0000
  C   C377      1.0  0.94644  0.90925  0.50042  1.0000
  C   C378      1.0  0.91998  0.90229  0.50042  1.0000
  C   C379      1.0  0.90055  0.92175  0.50042  1.0000
  C   C380      1.0  0.90743  0.94833  0.50042  1.0000
  C   C381      1.0  0.94646  0.09503  0.50042  1.0000
  C   C382      1.0  0.91997  0.10200  0.50042  1.0000
  C   C383      1.0  0.90055  0.08253  0.50042  1.0000
  C   C384      1.0  0.90743  0.05595  0.50042  1.0000
  N   N6        1.0  0.02753  0.02938  0.50042  1.0000
  C   C385      1.0  0.02373  0.05617  0.50042  1.0000
  N   N7        1.0  0.00010  0.06898  0.50042  1.0000
  C   C386      1.0  0.04792  0.06858  0.50042  1.0000
  C   C387      1.0  0.06668  0.04980  0.50042  1.0000
  C   C388      1.0  0.05432  0.02560  0.50042  1.0000
  C   C389      1.0  0.09308  0.05596  0.50042  1.0000
  C   C390      1.0  0.09998  0.08254  0.50042  1.0000
  C   C391      1.0  0.08052  0.10200  0.50042  1.0000
  C   C392      1.0  0.05400  0.09503  0.50042  1.0000
  N   N8        1.0  0.06716  0.00212  0.50042  1.0000
  H   H121      1.0  0.10716  0.96278  0.50042  1.0000
  H   H122      1.0  0.03953  0.89519  0.50042  1.0000
  H   H123      1.0  0.96089  0.89519  0.50042  1.0000
  H   H124      1.0  0.89339  0.96278  0.50042  1.0000
  H   H125      1.0  0.96089  0.10908  0.50042  1.0000
  H   H126      1.0  0.89340  0.04149  0.50042  1.0000
  H   H127      1.0  0.10714  0.04151  0.50042  1.0000
  H   H128      1.0  0.03953  0.10909  0.50042  1.0000
  C   C393      1.0  0.12624  0.08975  0.50042  1.0000
  C   C394      1.0  0.13323  0.11616  0.50042  1.0000
  C   C395      1.0  0.11398  0.13541  0.50042  1.0000
  C   C396      1.0  0.08765  0.12834  0.50042  1.0000
  C   C397      1.0  0.12628  0.91452  0.50042  1.0000
  C   C398      1.0  0.13327  0.88811  0.50042  1.0000
  C   C399      1.0  0.11403  0.86888  0.50042  1.0000
  C   C400      1.0  0.08769  0.87595  0.50042  1.0000
  C   C401      1.0  0.91282  0.87593  0.50042  1.0000
  C   C402      1.0  0.88651  0.86887  0.50042  1.0000
  C   C403      1.0  0.86730  0.88814  0.50042  1.0000
  C   C404      1.0  0.87430  0.91454  0.50042  1.0000
  C   C405      1.0  0.91282  0.12835  0.50042  1.0000
  C   C406      1.0  0.88654  0.13541  0.50042  1.0000
  C   C407      1.0  0.86732  0.11618  0.50042  1.0000
  C   C408      1.0  0.87432  0.08977  0.50042  1.0000
  H   H129      1.0  0.14052  0.07553  0.50042  1.0000
  O   O121      1.0  0.15884  0.12313  0.50042  1.0000
  O   O122      1.0  0.12088  0.16110  0.50042  1.0000
  H   H130      1.0  0.07343  0.14265  0.50042  1.0000
  H   H131      1.0  0.14057  0.92874  0.50042  1.0000
  O   O123      1.0  0.15889  0.88113  0.50041  1.0000
  O   O124      1.0  0.12092  0.84317  0.50041  1.0000
  H   H132      1.0  0.07348  0.86165  0.50042  1.0000
  H   H133      1.0  0.92701  0.86163  0.50042  1.0000
  O   O125      1.0  0.87960  0.84318  0.50042  1.0000
  O   O126      1.0  0.84172  0.88116  0.50042  1.0000
  H   H134      1.0  0.86004  0.92876  0.50042  1.0000
  H   H135      1.0  0.92699  0.14263  0.50042  1.0000
  O   O127      1.0  0.87961  0.16110  0.50042  1.0000
  O   O128      1.0  0.84175  0.12315  0.50042  1.0000
  H   H136      1.0  0.86005  0.07556  0.50042  1.0000
  Ni  Ni1       1.0  0.00010  0.00214  0.50042  1.0000
  C   C409      1.0  0.50027  0.05594  0.09315  1.0000
  C   C410      1.0  0.50027  0.08252  0.10003  1.0000
  C   C411      1.0  0.50027  0.10197  0.08058  1.0000
  C   C412      1.0  0.50027  0.09502  0.05408  1.0000
  C   C413      1.0  0.50027  0.06856  0.04802  1.0000
  C   C414      1.0  0.50027  0.04980  0.06677  1.0000
  C   C415      1.0  0.50027  0.02560  0.05442  1.0000
  N   N9        1.0  0.50027  0.02937  0.02764  1.0000
  C   C416      1.0  0.50027  0.05617  0.02385  1.0000
  N   N10       1.0  0.50027  0.06900  0.00010  1.0000
  C   C417      1.0  0.50027  0.05618  0.97690  1.0000
  N   N11       1.0  0.50027  0.02938  0.97312  1.0000
  C   C418      1.0  0.50027  0.02559  0.94637  1.0000
  C   C419      1.0  0.50027  0.04980  0.93403  1.0000
  C   C420      1.0  0.50027  0.06857  0.95273  1.0000
  N   N12       1.0  0.50027  0.97490  0.97311  1.0000
  C   C421      1.0  0.50028  0.97868  0.94638  1.0000
  N   N13       1.0  0.50027  0.00213  0.93359  1.0000
  C   C422      1.0  0.50028  0.95447  0.93403  1.0000
  C   C423      1.0  0.50028  0.93571  0.95274  1.0000
  C   C424      1.0  0.50027  0.94810  0.97689  1.0000
  C   C425      1.0  0.50027  0.09503  0.94665  1.0000
  C   C426      1.0  0.50027  0.10199  0.92021  1.0000
  C   C427      1.0  0.50027  0.08253  0.90080  1.0000
  C   C428      1.0  0.50027  0.05595  0.90767  1.0000
  C   C429      1.0  0.50028  0.90925  0.94666  1.0000
  C   C430      1.0  0.50028  0.90228  0.92020  1.0000
  C   C431      1.0  0.50028  0.92175  0.90080  1.0000
  C   C432      1.0  0.50028  0.94833  0.90768  1.0000
  N   N14       1.0  0.50027  0.97489  0.02765  1.0000
  C   C433      1.0  0.50027  0.94811  0.02385  1.0000
  N   N15       1.0  0.50027  0.93529  0.00010  1.0000
  C   C434      1.0  0.50027  0.93570  0.04802  1.0000
  C   C435      1.0  0.50027  0.95447  0.06675  1.0000
  C   C436      1.0  0.50027  0.97868  0.05441  1.0000
  C   C437      1.0  0.50027  0.94832  0.09312  1.0000
  C   C438      1.0  0.50027  0.92173  0.10001  1.0000
  C   C439      1.0  0.50027  0.90228  0.08057  1.0000
  C   C440      1.0  0.50027  0.90925  0.05408  1.0000
  N   N16       1.0  0.50027  0.00215  0.06723  1.0000
  H   H137      1.0  0.50027  0.04149  0.10719  1.0000
  H   H138      1.0  0.50027  0.10908  0.03964  1.0000
  H   H139      1.0  0.50027  0.10909  0.96107  1.0000
  H   H140      1.0  0.50028  0.04149  0.89365  1.0000
  H   H141      1.0  0.50028  0.89519  0.96107  1.0000
  H   H142      1.0  0.50028  0.96279  0.89366  1.0000
  H   H143      1.0  0.50027  0.96277  0.10716  1.0000
  H   H144      1.0  0.50027  0.89519  0.03964  1.0000
  C   C441      1.0  0.50027  0.91452  0.12625  1.0000
  C   C442      1.0  0.50027  0.88811  0.13323  1.0000
  C   C443      1.0  0.50027  0.86887  0.11400  1.0000
  C   C444      1.0  0.50027  0.87594  0.08770  1.0000
  C   C445      1.0  0.50027  0.08975  0.12629  1.0000
  C   C446      1.0  0.50027  0.11616  0.13327  1.0000
  C   C447      1.0  0.50027  0.13540  0.11405  1.0000
  C   C448      1.0  0.50027  0.12833  0.08774  1.0000
  C   C449      1.0  0.50027  0.12835  0.91307  1.0000
  C   C450      1.0  0.50027  0.13540  0.88678  1.0000
  C   C451      1.0  0.50027  0.11614  0.86759  1.0000
  C   C452      1.0  0.50027  0.08974  0.87458  1.0000
  C   C453      1.0  0.50028  0.87592  0.91306  1.0000
  C   C454      1.0  0.50028  0.86886  0.88680  1.0000
  C   C455      1.0  0.50028  0.88810  0.86761  1.0000
  C   C456      1.0  0.50028  0.91451  0.87460  1.0000
  H   H145      1.0  0.50027  0.92874  0.14052  1.0000
  O   O129      1.0  0.50027  0.88114  0.15881  1.0000
  O   O130      1.0  0.50027  0.84317  0.12089  1.0000
  H   H146      1.0  0.50027  0.86163  0.07350  1.0000
  H   H147      1.0  0.50027  0.07554  0.14056  1.0000
  O   O131      1.0  0.50027  0.12314  0.15886  1.0000
  O   O132      1.0  0.50027  0.16110  0.12093  1.0000
  H   H148      1.0  0.50027  0.14263  0.07355  1.0000
  H   H149      1.0  0.50027  0.14264  0.92723  1.0000
  O   O133      1.0  0.50027  0.16110  0.87987  1.0000
  O   O134      1.0  0.50027  0.12312  0.84204  1.0000
  H   H150      1.0  0.50028  0.07552  0.86034  1.0000
  H   H151      1.0  0.50028  0.86164  0.92722  1.0000
  O   O135      1.0  0.50028  0.84318  0.87989  1.0000
  O   O136      1.0  0.50028  0.88113  0.84206  1.0000
  H   H152      1.0  0.50028  0.92872  0.86035  1.0000
  Ni  Ni2       1.0  0.50027  0.00214  0.00010  1.0000
  C   C457      1.0  0.90744  0.50215  0.05428  1.0000
  C   C458      1.0  0.90055  0.50216  0.08089  1.0000
  C   C459      1.0  0.92003  0.50216  0.10037  1.0000
  C   C460      1.0  0.94655  0.50215  0.09341  1.0000
  C   C461      1.0  0.95262  0.50215  0.06692  1.0000
  C   C462      1.0  0.93385  0.50215  0.04814  1.0000
  C   C463      1.0  0.94622  0.50215  0.02391  1.0000
  N   N17       1.0  0.97303  0.50215  0.02769  1.0000
  C   C464      1.0  0.97681  0.50215  0.05452  1.0000
  N   N18       1.0  0.00010  0.50215  0.06736  1.0000
  C   C465      1.0  0.02382  0.50215  0.05453  1.0000
  N   N19       1.0  0.02761  0.50215  0.02769  1.0000
  C   C466      1.0  0.05438  0.50215  0.02390  1.0000
  C   C467      1.0  0.06674  0.50215  0.04813  1.0000
  C   C468      1.0  0.04802  0.50215  0.06693  1.0000
  N   N20       1.0  0.02761  0.50215  0.97316  1.0000
  C   C469      1.0  0.05437  0.50215  0.97694  1.0000
  N   N21       1.0  0.06718  0.50215  0.00010  1.0000
  C   C470      1.0  0.06674  0.50215  0.95270  1.0000
  C   C471      1.0  0.04800  0.50215  0.93392  1.0000
  C   C472      1.0  0.02383  0.50215  0.94632  1.0000
  C   C473      1.0  0.05410  0.50215  0.09341  1.0000
  C   C474      1.0  0.08057  0.50215  0.10038  1.0000
  C   C475      1.0  0.10000  0.50215  0.08090  1.0000
  C   C476      1.0  0.09312  0.50215  0.05429  1.0000
  C   C477      1.0  0.05409  0.50215  0.90743  1.0000
  C   C478      1.0  0.08058  0.50215  0.90046  1.0000
  C   C479      1.0  0.10000  0.50215  0.91995  1.0000
  C   C480      1.0  0.09311  0.50215  0.94655  1.0000
  N   N22       1.0  0.97302  0.50215  0.97315  1.0000
  C   C481      1.0  0.97681  0.50215  0.94633  1.0000
  N   N23       1.0  0.00010  0.50215  0.93351  1.0000
  C   C482      1.0  0.95262  0.50215  0.93391  1.0000
  C   C483      1.0  0.93387  0.50215  0.95271  1.0000
  C   C484      1.0  0.94623  0.50215  0.97694  1.0000
  C   C485      1.0  0.90747  0.50215  0.94655  1.0000
  C   C486      1.0  0.90057  0.50215  0.91993  1.0000
  C   C487      1.0  0.92003  0.50215  0.90046  1.0000
  C   C488      1.0  0.94655  0.50215  0.90743  1.0000
  N   N24       1.0  0.93339  0.50215  0.00010  1.0000
  H   H153      1.0  0.89339  0.50215  0.03982  1.0000
  H   H154      1.0  0.96101  0.50215  0.10748  1.0000
  H   H155      1.0  0.03966  0.50215  0.10749  1.0000
  H   H156      1.0  0.10716  0.50215  0.03982  1.0000
  H   H157      1.0  0.03966  0.50215  0.89336  1.0000
  H   H158      1.0  0.10714  0.50215  0.96103  1.0000
  H   H159      1.0  0.89341  0.50215  0.96101  1.0000
  H   H160      1.0  0.96101  0.50215  0.89336  1.0000
  C   C489      1.0  0.87430  0.50215  0.91271  1.0000
  C   C490      1.0  0.86732  0.50215  0.88627  1.0000
  C   C491      1.0  0.88657  0.50215  0.86701  1.0000
  C   C492      1.0  0.91290  0.50215  0.87409  1.0000
  C   C493      1.0  0.87427  0.50216  0.08813  1.0000
  C   C494      1.0  0.86727  0.50216  0.11457  1.0000
  C   C495      1.0  0.88652  0.50216  0.13383  1.0000
  C   C496      1.0  0.91286  0.50216  0.12675  1.0000
  C   C497      1.0  0.08772  0.50215  0.12677  1.0000
  C   C498      1.0  0.11404  0.50215  0.13383  1.0000
  C   C499      1.0  0.13325  0.50215  0.11455  1.0000
  C   C500      1.0  0.12625  0.50215  0.08812  1.0000
  C   C501      1.0  0.08773  0.50215  0.87407  1.0000
  C   C502      1.0  0.11401  0.50215  0.86700  1.0000
  C   C503      1.0  0.13322  0.50215  0.88626  1.0000
  C   C504      1.0  0.12623  0.50215  0.91270  1.0000
  H   H161      1.0  0.86002  0.50215  0.92695  1.0000
  O   O137      1.0  0.84171  0.50215  0.87930  1.0000
  O   O138      1.0  0.87967  0.50215  0.84129  1.0000
  H   H162      1.0  0.92712  0.50215  0.85976  1.0000
  H   H163      1.0  0.85998  0.50216  0.07390  1.0000
  O   O139      1.0  0.84166  0.50216  0.12156  1.0000
  O   O140      1.0  0.87963  0.50216  0.15956  1.0000
  H   H164      1.0  0.92707  0.50216  0.14106  1.0000
  H   H165      1.0  0.07354  0.50215  0.14108  1.0000
  O   O141      1.0  0.12095  0.50215  0.15956  1.0000
  O   O142      1.0  0.15882  0.50215  0.12154  1.0000
  H   H166      1.0  0.14051  0.50215  0.07389  1.0000
  H   H167      1.0  0.07355  0.50215  0.85978  1.0000
  O   O143      1.0  0.12094  0.50215  0.84129  1.0000
  O   O144      1.0  0.15880  0.50215  0.87929  1.0000
  H   H168      1.0  0.14050  0.50215  0.92693  1.0000
  Ni  Ni3       1.0  0.00010  0.50215  0.00010  1.0000
  Zn  Zn1       1.0  0.27068  0.27284  0.40406  1.0000
  Zn  Zn2       1.0  0.72986  0.27285  0.40406  1.0000
  Zn  Zn3       1.0  0.72984  0.73145  0.40406  1.0000
  Zn  Zn4       1.0  0.27071  0.73144  0.40405  1.0000
  Zn  Zn5       1.0  0.27071  0.73144  0.59678  1.0000
  Zn  Zn6       1.0  0.27068  0.27284  0.59679  1.0000
  Zn  Zn7       1.0  0.72987  0.27285  0.59679  1.0000
  Zn  Zn8       1.0  0.72984  0.73145  0.59679  1.0000
  Zn  Zn9       1.0  0.40382  0.27292  0.27069  1.0000
  Zn  Zn10      1.0  0.72993  0.40587  0.27129  1.0000
  Zn  Zn11      1.0  0.59672  0.73135  0.27067  1.0000
  Zn  Zn12      1.0  0.27062  0.59842  0.27128  1.0000
  Zn  Zn13      1.0  0.40383  0.73134  0.73017  1.0000
  Zn  Zn14      1.0  0.27059  0.40585  0.72955  1.0000
  Zn  Zn15      1.0  0.59673  0.27293  0.73016  1.0000
  Zn  Zn16      1.0  0.72996  0.59842  0.72955  1.0000
  Zn  Zn17      1.0  0.27061  0.40586  0.27128  1.0000
  Zn  Zn18      1.0  0.27060  0.59841  0.72955  1.0000
  Zn  Zn19      1.0  0.40382  0.27292  0.73016  1.0000
  Zn  Zn20      1.0  0.72996  0.40586  0.72956  1.0000
  Zn  Zn21      1.0  0.59673  0.73134  0.73018  1.0000
  Zn  Zn22      1.0  0.72993  0.59843  0.27129  1.0000
  Zn  Zn23      1.0  0.40383  0.73135  0.27066  1.0000
  Zn  Zn24      1.0  0.59671  0.27293  0.27070  1.0000
  Zn  Zn25      1.0  0.15743  0.15969  0.50042  1.0000
  Zn  Zn26      1.0  0.84311  0.15969  0.50042  1.0000
  Zn  Zn27      1.0  0.84308  0.84461  0.50042  1.0000
  Zn  Zn28      1.0  0.15747  0.84460  0.50041  1.0000
  Zn  Zn29      1.0  0.50027  0.15976  0.15742  1.0000
  Zn  Zn30      1.0  0.84315  0.50215  0.15816  1.0000
  Zn  Zn31      1.0  0.50027  0.84452  0.15738  1.0000
  Zn  Zn32      1.0  0.15739  0.50215  0.15814  1.0000
  Zn  Zn33      1.0  0.50028  0.84451  0.84345  1.0000
  Zn  Zn34      1.0  0.15736  0.50214  0.84268  1.0000
  Zn  Zn35      1.0  0.50027  0.15975  0.84343  1.0000
  Zn  Zn36      1.0  0.84320  0.50215  0.84268  1.0000
