data_image0
_chemical_formula_structural       C26H7O2H2O2HC4HO2HC26H7O2H2O2HC4HO2HC26H7O2H2O2HC4HO2HC26H7O2H2O2HC4HO2HC26H7O2H2O2HC4HO2HC26H7O2H2O2HC4HO2HC26H7O2H2O2HC4HO2HC26H7O2H2O2HC4HO2HC26H7O2H2O2HC4HO2HC26H7O2H2O2HC4HO2HC26H7O2H2O2HC4HO2HC26H7O2H2O2HC4HO2HC26H7O2H2O2HC4HO2HC26H7O2H2O2HC4HO2HC26H7O2H2O2HC4HO2HC26H7O2H2O2HC4HO2HC26H7O2H2O2HC4HO2HC26H7O2H2O2HC4HO2HC26H7O2H2O2HC4HO2HC26H7O2H2O2HC4HO2HC7NCNCNC3NCNC11NCNC7NHO2H2O2H2O2H2O2HNiC7NCNCNC3NCNC11NCNC7NHO2H2O2H2O2H2O2HNiC7NCNCNC3NCNC11NCNC7NHO2H2O2H2O2H2O2HNiZn36
_chemical_formula_sum              "C696 H264 O144 N24 Ni3 Zn36"
_cell_length_a       72.6105
_cell_length_b       72.6101
_cell_length_c       72.6103
_cell_angle_alpha    89.9999
_cell_angle_beta     90
_cell_angle_gamma    90

_space_group_name_H-M_alt    "P 1"
_space_group_IT_number       1

loop_
  _space_group_symop_operation_xyz
  'x, y, z'

loop_
  _atom_site_type_symbol
  _atom_site_label
  _atom_site_symmetry_multiplicity
  _atom_site_fract_x
  _atom_site_fract_y
  _atom_site_fract_z
  _atom_site_occupancy
  C   C1        1.0  0.26156  0.27658  0.29154  1.0000
  C   C2        1.0  0.27655  0.26159  0.29154  1.0000
  C   C3        1.0  0.29155  0.26159  0.27654  1.0000
  C   C4        1.0  0.29155  0.27658  0.26155  1.0000
  C   C5        1.0  0.27655  0.29158  0.26155  1.0000
  C   C6        1.0  0.26156  0.29158  0.27654  1.0000
  C   C7        1.0  0.30655  0.27658  0.24655  1.0000
  C   C8        1.0  0.32154  0.26159  0.24655  1.0000
  C   C9        1.0  0.32154  0.24659  0.26155  1.0000
  C   C10       1.0  0.30655  0.24659  0.27655  1.0000
  C   C11       1.0  0.24656  0.27658  0.30654  1.0000
  C   C12       1.0  0.24655  0.26160  0.32153  1.0000
  C   C13       1.0  0.26155  0.24659  0.32153  1.0000
  C   C14       1.0  0.27655  0.24659  0.30654  1.0000
  C   C15       1.0  0.24656  0.30659  0.27654  1.0000
  C   C16       1.0  0.24656  0.32157  0.26155  1.0000
  C   C17       1.0  0.26156  0.32157  0.24655  1.0000
  C   C18       1.0  0.27655  0.30658  0.24655  1.0000
  C   C19       1.0  0.26156  0.33657  0.23155  1.0000
  C   C20       1.0  0.24656  0.35158  0.23155  1.0000
  C   C21       1.0  0.23156  0.35158  0.24654  1.0000
  C   C22       1.0  0.23156  0.33658  0.26154  1.0000
  C   C23       1.0  0.33654  0.23159  0.26155  1.0000
  C   C24       1.0  0.35154  0.23159  0.24656  1.0000
  C   C25       1.0  0.35154  0.24659  0.23156  1.0000
  C   C26       1.0  0.33654  0.26159  0.23156  1.0000
  H   H1        1.0  0.30655  0.28769  0.23545  1.0000
  H   H2        1.0  0.30654  0.23549  0.28765  1.0000
  H   H3        1.0  0.23545  0.28770  0.30653  1.0000
  H   H4        1.0  0.28765  0.23549  0.30654  1.0000
  H   H5        1.0  0.23545  0.30659  0.28764  1.0000
  H   H6        1.0  0.28766  0.30658  0.23545  1.0000
  H   H7        1.0  0.27266  0.33657  0.22045  1.0000
  O   O1        1.0  0.24656  0.36618  0.21694  1.0000
  O   O2        1.0  0.21696  0.36618  0.24654  1.0000
  H   H8        1.0  0.22046  0.33658  0.27264  1.0000
  H   H9        1.0  0.33654  0.22049  0.27265  1.0000
  O   O3        1.0  0.36615  0.21698  0.24656  1.0000
  O   O4        1.0  0.36615  0.24659  0.21695  1.0000
  H   H10       1.0  0.33654  0.27269  0.22046  1.0000
  C   C27       1.0  0.26155  0.23159  0.33653  1.0000
  C   C28       1.0  0.24655  0.23159  0.35153  1.0000
  C   C29       1.0  0.23155  0.24660  0.35153  1.0000
  C   C30       1.0  0.23155  0.26160  0.33653  1.0000
  H   H11       1.0  0.27265  0.22050  0.33653  1.0000
  O   O5        1.0  0.24655  0.21699  0.36614  1.0000
  O   O6        1.0  0.21695  0.24660  0.36613  1.0000
  H   H12       1.0  0.22045  0.27270  0.33653  1.0000
  C   C31       1.0  0.73863  0.29159  0.27654  1.0000
  C   C32       1.0  0.72363  0.29159  0.26155  1.0000
  C   C33       1.0  0.70863  0.27659  0.26155  1.0000
  C   C34       1.0  0.70863  0.26160  0.27654  1.0000
  C   C35       1.0  0.72363  0.26159  0.29154  1.0000
  C   C36       1.0  0.73863  0.27659  0.29154  1.0000
  C   C37       1.0  0.69364  0.24660  0.27654  1.0000
  C   C38       1.0  0.67864  0.24659  0.26155  1.0000
  C   C39       1.0  0.67864  0.26159  0.24655  1.0000
  C   C40       1.0  0.69363  0.27659  0.24655  1.0000
  C   C41       1.0  0.75362  0.30659  0.27654  1.0000
  C   C42       1.0  0.75362  0.32158  0.26155  1.0000
  C   C43       1.0  0.73862  0.32158  0.24655  1.0000
  C   C44       1.0  0.72363  0.30658  0.24655  1.0000
  C   C45       1.0  0.75363  0.27659  0.30654  1.0000
  C   C46       1.0  0.75363  0.26160  0.32153  1.0000
  C   C47       1.0  0.73863  0.24660  0.32153  1.0000
  C   C48       1.0  0.72364  0.24660  0.30654  1.0000
  C   C49       1.0  0.73863  0.23160  0.33653  1.0000
  C   C50       1.0  0.75363  0.23160  0.35153  1.0000
  C   C51       1.0  0.76863  0.24660  0.35153  1.0000
  C   C52       1.0  0.76863  0.26160  0.33653  1.0000
  C   C53       1.0  0.66364  0.26159  0.23155  1.0000
  C   C54       1.0  0.64864  0.24659  0.23155  1.0000
  C   C55       1.0  0.64865  0.23160  0.24655  1.0000
  C   C56       1.0  0.66365  0.23160  0.26155  1.0000
  H   H13       1.0  0.69364  0.23549  0.28765  1.0000
  H   H14       1.0  0.69364  0.28769  0.23545  1.0000
  H   H15       1.0  0.76473  0.30659  0.28764  1.0000
  H   H16       1.0  0.71253  0.30658  0.23545  1.0000
  H   H17       1.0  0.76473  0.28769  0.30654  1.0000
  H   H18       1.0  0.71253  0.23549  0.30654  1.0000
  H   H19       1.0  0.72753  0.22050  0.33653  1.0000
  O   O7        1.0  0.75364  0.21699  0.36614  1.0000
  O   O8        1.0  0.78324  0.24660  0.36613  1.0000
  H   H20       1.0  0.77973  0.27270  0.33653  1.0000
  H   H21       1.0  0.66364  0.27269  0.22045  1.0000
  O   O9        1.0  0.63403  0.24659  0.21695  1.0000
  O   O10       1.0  0.63404  0.21699  0.24656  1.0000
  H   H22       1.0  0.66365  0.22050  0.27265  1.0000
  C   C57       1.0  0.73862  0.33658  0.23154  1.0000
  C   C58       1.0  0.75362  0.35158  0.23154  1.0000
  C   C59       1.0  0.76862  0.35158  0.24654  1.0000
  C   C60       1.0  0.76862  0.33658  0.26154  1.0000
  H   H23       1.0  0.72752  0.33658  0.22045  1.0000
  O   O11       1.0  0.75362  0.36619  0.21694  1.0000
  O   O12       1.0  0.78322  0.36619  0.24654  1.0000
  H   H24       1.0  0.77972  0.33658  0.27264  1.0000
  C   C61       1.0  0.70862  0.73866  0.27653  1.0000
  C   C62       1.0  0.70862  0.72367  0.26154  1.0000
  C   C63       1.0  0.72362  0.70867  0.26154  1.0000
  C   C64       1.0  0.73861  0.70867  0.27653  1.0000
  C   C65       1.0  0.73861  0.72367  0.29153  1.0000
  C   C66       1.0  0.72362  0.73866  0.29153  1.0000
  C   C67       1.0  0.75361  0.69367  0.27653  1.0000
  C   C68       1.0  0.75362  0.67868  0.26154  1.0000
  C   C69       1.0  0.73862  0.67867  0.24654  1.0000
  C   C70       1.0  0.72362  0.69367  0.24654  1.0000
  C   C71       1.0  0.69362  0.75366  0.27652  1.0000
  C   C72       1.0  0.67863  0.75366  0.26153  1.0000
  C   C73       1.0  0.67863  0.73866  0.24653  1.0000
  C   C74       1.0  0.69363  0.72366  0.24653  1.0000
  C   C75       1.0  0.72362  0.75366  0.30653  1.0000
  C   C76       1.0  0.73861  0.75366  0.32152  1.0000
  C   C77       1.0  0.75361  0.73866  0.32152  1.0000
  C   C78       1.0  0.75361  0.72367  0.30653  1.0000
  C   C79       1.0  0.76861  0.73866  0.33652  1.0000
  C   C80       1.0  0.76861  0.75366  0.35152  1.0000
  C   C81       1.0  0.75361  0.76866  0.35152  1.0000
  C   C82       1.0  0.73861  0.76866  0.33652  1.0000
  C   C83       1.0  0.73862  0.66367  0.23154  1.0000
  C   C84       1.0  0.75361  0.64868  0.23154  1.0000
  C   C85       1.0  0.76861  0.64868  0.24654  1.0000
  C   C86       1.0  0.76861  0.66368  0.26154  1.0000
  H   H25       1.0  0.76472  0.69367  0.28764  1.0000
  H   H26       1.0  0.71252  0.69367  0.23544  1.0000
  H   H27       1.0  0.69363  0.76476  0.28763  1.0000
  H   H28       1.0  0.69363  0.71256  0.23544  1.0000
  H   H29       1.0  0.71252  0.76476  0.30653  1.0000
  H   H30       1.0  0.76471  0.71257  0.30653  1.0000
  H   H31       1.0  0.77971  0.72756  0.33652  1.0000
  O   O13       1.0  0.78321  0.75366  0.36613  1.0000
  O   O14       1.0  0.75361  0.78327  0.36613  1.0000
  H   H32       1.0  0.72751  0.77976  0.33652  1.0000
  H   H33       1.0  0.72752  0.66368  0.22044  1.0000
  O   O15       1.0  0.75361  0.63407  0.21693  1.0000
  O   O16       1.0  0.78322  0.63407  0.24654  1.0000
  H   H34       1.0  0.77971  0.66368  0.27264  1.0000
  C   C87       1.0  0.66363  0.73866  0.23153  1.0000
  C   C88       1.0  0.64863  0.75366  0.23153  1.0000
  C   C89       1.0  0.64863  0.76866  0.24653  1.0000
  C   C90       1.0  0.66363  0.76866  0.26153  1.0000
  H   H35       1.0  0.66363  0.72756  0.22043  1.0000
  O   O17       1.0  0.63403  0.75366  0.21692  1.0000
  O   O18       1.0  0.63403  0.78326  0.24653  1.0000
  H   H36       1.0  0.66363  0.77976  0.27263  1.0000
  C   C91       1.0  0.29156  0.72367  0.26153  1.0000
  C   C92       1.0  0.29156  0.73866  0.27653  1.0000
  C   C93       1.0  0.27656  0.73866  0.29152  1.0000
  C   C94       1.0  0.26157  0.72367  0.29153  1.0000
  C   C95       1.0  0.26157  0.70867  0.27653  1.0000
  C   C96       1.0  0.27656  0.70867  0.26153  1.0000
  C   C97       1.0  0.24657  0.72367  0.30653  1.0000
  C   C98       1.0  0.24657  0.73866  0.32152  1.0000
  C   C99       1.0  0.26157  0.75366  0.32152  1.0000
  C   C100      1.0  0.27656  0.75366  0.30652  1.0000
  C   C101      1.0  0.30656  0.72367  0.24653  1.0000
  C   C102      1.0  0.32155  0.73866  0.24653  1.0000
  C   C103      1.0  0.32155  0.75366  0.26153  1.0000
  C   C104      1.0  0.30656  0.75366  0.27653  1.0000
  C   C105      1.0  0.27656  0.69367  0.24653  1.0000
  C   C106      1.0  0.26157  0.67868  0.24654  1.0000
  C   C107      1.0  0.24657  0.67868  0.26154  1.0000
  C   C108      1.0  0.24657  0.69367  0.27653  1.0000
  C   C109      1.0  0.23157  0.66368  0.26153  1.0000
  C   C110      1.0  0.23157  0.64868  0.24654  1.0000
  C   C111      1.0  0.24657  0.64868  0.23154  1.0000
  C   C112      1.0  0.26156  0.66368  0.23154  1.0000
  C   C113      1.0  0.26157  0.76866  0.33652  1.0000
  C   C114      1.0  0.24657  0.76866  0.35152  1.0000
  C   C115      1.0  0.23157  0.75366  0.35151  1.0000
  C   C116      1.0  0.23157  0.73866  0.33652  1.0000
  H   H37       1.0  0.23547  0.71256  0.30652  1.0000
  H   H38       1.0  0.28766  0.76476  0.30652  1.0000
  H   H39       1.0  0.30655  0.71256  0.23543  1.0000
  H   H40       1.0  0.30656  0.76476  0.28763  1.0000
  H   H41       1.0  0.28766  0.69367  0.23543  1.0000
  H   H42       1.0  0.23547  0.69367  0.28763  1.0000
  H   H43       1.0  0.22047  0.66368  0.27264  1.0000
  O   O19       1.0  0.21696  0.63407  0.24654  1.0000
  O   O20       1.0  0.24656  0.63407  0.21693  1.0000
  H   H44       1.0  0.27267  0.66368  0.22044  1.0000
  H   H45       1.0  0.27267  0.77976  0.33652  1.0000
  O   O21       1.0  0.24657  0.78327  0.36612  1.0000
  O   O22       1.0  0.21697  0.75366  0.36612  1.0000
  H   H46       1.0  0.22047  0.72756  0.33652  1.0000
  C   C117      1.0  0.33655  0.76866  0.26153  1.0000
  C   C118      1.0  0.35155  0.76866  0.24653  1.0000
  C   C119      1.0  0.35155  0.75366  0.23153  1.0000
  C   C120      1.0  0.33655  0.73866  0.23153  1.0000
  H   H47       1.0  0.33655  0.77976  0.27263  1.0000
  O   O23       1.0  0.36616  0.78327  0.24653  1.0000
  O   O24       1.0  0.36615  0.75366  0.21693  1.0000
  H   H48       1.0  0.33655  0.72756  0.22043  1.0000
  C   C121      1.0  0.26156  0.70866  0.72362  1.0000
  C   C122      1.0  0.27655  0.70867  0.73861  1.0000
  C   C123      1.0  0.29155  0.72366  0.73861  1.0000
  C   C124      1.0  0.29155  0.73866  0.72362  1.0000
  C   C125      1.0  0.27656  0.73866  0.70862  1.0000
  C   C126      1.0  0.26156  0.72366  0.70862  1.0000
  C   C127      1.0  0.30655  0.75365  0.72362  1.0000
  C   C128      1.0  0.32154  0.75366  0.73861  1.0000
  C   C129      1.0  0.32154  0.73866  0.75361  1.0000
  C   C130      1.0  0.30655  0.72366  0.75361  1.0000
  C   C131      1.0  0.24656  0.69367  0.72362  1.0000
  C   C132      1.0  0.24656  0.67867  0.73861  1.0000
  C   C133      1.0  0.26155  0.67867  0.75361  1.0000
  C   C134      1.0  0.27655  0.69367  0.75361  1.0000
  C   C135      1.0  0.24656  0.72367  0.69362  1.0000
  C   C136      1.0  0.24656  0.73866  0.67863  1.0000
  C   C137      1.0  0.26156  0.75366  0.67863  1.0000
  C   C138      1.0  0.27655  0.75366  0.69362  1.0000
  C   C139      1.0  0.26156  0.76866  0.66363  1.0000
  C   C140      1.0  0.24656  0.76866  0.64863  1.0000
  C   C141      1.0  0.23157  0.75366  0.64863  1.0000
  C   C142      1.0  0.23157  0.73866  0.66363  1.0000
  C   C143      1.0  0.33654  0.73866  0.76862  1.0000
  C   C144      1.0  0.35154  0.75365  0.76862  1.0000
  C   C145      1.0  0.35154  0.76865  0.75362  1.0000
  C   C146      1.0  0.33654  0.76865  0.73861  1.0000
  H   H49       1.0  0.30655  0.76476  0.71251  1.0000
  H   H50       1.0  0.30654  0.71256  0.76471  1.0000
  H   H51       1.0  0.23546  0.69367  0.71251  1.0000
  H   H52       1.0  0.28765  0.69367  0.76471  1.0000
  H   H53       1.0  0.23546  0.71256  0.69362  1.0000
  H   H54       1.0  0.28766  0.76476  0.69362  1.0000
  H   H55       1.0  0.27266  0.77976  0.66363  1.0000
  O   O25       1.0  0.24657  0.78327  0.63402  1.0000
  O   O26       1.0  0.21696  0.75366  0.63402  1.0000
  H   H56       1.0  0.22046  0.72756  0.66363  1.0000
  H   H57       1.0  0.33654  0.72756  0.77971  1.0000
  O   O27       1.0  0.36615  0.75365  0.78322  1.0000
  O   O28       1.0  0.36615  0.78326  0.75362  1.0000
  H   H58       1.0  0.33654  0.77976  0.72752  1.0000
  C   C147      1.0  0.26155  0.66367  0.76861  1.0000
  C   C148      1.0  0.24656  0.64868  0.76861  1.0000
  C   C149      1.0  0.23156  0.64868  0.75361  1.0000
  C   C150      1.0  0.23156  0.66368  0.73861  1.0000
  H   H59       1.0  0.27265  0.66367  0.77971  1.0000
  O   O29       1.0  0.24656  0.63407  0.78322  1.0000
  O   O30       1.0  0.21695  0.63407  0.75361  1.0000
  H   H60       1.0  0.22046  0.66368  0.72751  1.0000
  C   C151      1.0  0.29155  0.26159  0.72361  1.0000
  C   C152      1.0  0.29155  0.27658  0.73860  1.0000
  C   C153      1.0  0.27655  0.29158  0.73860  1.0000
  C   C154      1.0  0.26156  0.29158  0.72361  1.0000
  C   C155      1.0  0.26155  0.27658  0.70861  1.0000
  C   C156      1.0  0.27655  0.26159  0.70861  1.0000
  C   C157      1.0  0.24656  0.30658  0.72361  1.0000
  C   C158      1.0  0.24656  0.32157  0.73860  1.0000
  C   C159      1.0  0.26156  0.32157  0.75360  1.0000
  C   C160      1.0  0.27655  0.30658  0.75360  1.0000
  C   C161      1.0  0.30655  0.24659  0.72361  1.0000
  C   C162      1.0  0.32154  0.24659  0.73860  1.0000
  C   C163      1.0  0.32154  0.26159  0.75360  1.0000
  C   C164      1.0  0.30655  0.27658  0.75360  1.0000
  C   C165      1.0  0.27655  0.24659  0.69361  1.0000
  C   C166      1.0  0.26155  0.24659  0.67862  1.0000
  C   C167      1.0  0.24656  0.26159  0.67862  1.0000
  C   C168      1.0  0.24655  0.27658  0.69361  1.0000
  C   C169      1.0  0.23156  0.26159  0.66362  1.0000
  C   C170      1.0  0.23155  0.24659  0.64862  1.0000
  C   C171      1.0  0.24655  0.23159  0.64862  1.0000
  C   C172      1.0  0.26155  0.23159  0.66362  1.0000
  C   C173      1.0  0.26156  0.33657  0.76861  1.0000
  C   C174      1.0  0.24656  0.35157  0.76861  1.0000
  C   C175      1.0  0.23156  0.35157  0.75361  1.0000
  C   C176      1.0  0.23156  0.33657  0.73861  1.0000
  H   H61       1.0  0.23545  0.30658  0.71251  1.0000
  H   H62       1.0  0.28765  0.30658  0.76470  1.0000
  H   H63       1.0  0.30654  0.23549  0.71250  1.0000
  H   H64       1.0  0.30655  0.28768  0.76470  1.0000
  H   H65       1.0  0.28765  0.23549  0.69361  1.0000
  H   H66       1.0  0.23545  0.28769  0.69361  1.0000
  H   H67       1.0  0.22046  0.27269  0.66362  1.0000
  O   O31       1.0  0.21695  0.24659  0.63402  1.0000
  O   O32       1.0  0.24655  0.21699  0.63401  1.0000
  H   H68       1.0  0.27265  0.22049  0.66362  1.0000
  H   H69       1.0  0.27266  0.33657  0.77970  1.0000
  O   O33       1.0  0.24656  0.36618  0.78321  1.0000
  O   O34       1.0  0.21696  0.36618  0.75361  1.0000
  H   H70       1.0  0.22046  0.33657  0.72751  1.0000
  C   C177      1.0  0.33654  0.26159  0.76860  1.0000
  C   C178      1.0  0.35154  0.24659  0.76860  1.0000
  C   C179      1.0  0.35154  0.23159  0.75360  1.0000
  C   C180      1.0  0.33654  0.23159  0.73860  1.0000
  H   H71       1.0  0.33654  0.27269  0.77970  1.0000
  O   O35       1.0  0.36615  0.24659  0.78320  1.0000
  O   O36       1.0  0.36615  0.21698  0.75360  1.0000
  H   H72       1.0  0.33654  0.22049  0.72750  1.0000
  C   C181      1.0  0.70863  0.27658  0.73860  1.0000
  C   C182      1.0  0.70864  0.26159  0.72361  1.0000
  C   C183      1.0  0.72364  0.26159  0.70861  1.0000
  C   C184      1.0  0.73863  0.27658  0.70861  1.0000
  C   C185      1.0  0.73863  0.29158  0.72361  1.0000
  C   C186      1.0  0.72363  0.29158  0.73861  1.0000
  C   C187      1.0  0.75363  0.27658  0.69361  1.0000
  C   C188      1.0  0.75363  0.26159  0.67862  1.0000
  C   C189      1.0  0.73863  0.24659  0.67862  1.0000
  C   C190      1.0  0.72364  0.24659  0.69361  1.0000
  C   C191      1.0  0.69364  0.27658  0.75360  1.0000
  C   C192      1.0  0.67864  0.26159  0.75360  1.0000
  C   C193      1.0  0.67864  0.24659  0.73860  1.0000
  C   C194      1.0  0.69364  0.24659  0.72361  1.0000
  C   C195      1.0  0.72363  0.30658  0.75361  1.0000
  C   C196      1.0  0.73863  0.32157  0.75360  1.0000
  C   C197      1.0  0.75362  0.32157  0.73861  1.0000
  C   C198      1.0  0.75363  0.30658  0.72361  1.0000
  C   C199      1.0  0.76862  0.33657  0.73861  1.0000
  C   C200      1.0  0.76862  0.35157  0.75361  1.0000
  C   C201      1.0  0.75363  0.35157  0.76861  1.0000
  C   C202      1.0  0.73863  0.33657  0.76860  1.0000
  C   C203      1.0  0.73863  0.23159  0.66362  1.0000
  C   C204      1.0  0.75363  0.23159  0.64862  1.0000
  C   C205      1.0  0.76863  0.24659  0.64863  1.0000
  C   C206      1.0  0.76863  0.26159  0.66362  1.0000
  H   H73       1.0  0.76473  0.28769  0.69362  1.0000
  H   H74       1.0  0.71254  0.23549  0.69362  1.0000
  H   H75       1.0  0.69364  0.28769  0.76471  1.0000
  H   H76       1.0  0.69364  0.23549  0.71251  1.0000
  H   H77       1.0  0.71253  0.30658  0.76471  1.0000
  H   H78       1.0  0.76473  0.30658  0.71251  1.0000
  H   H79       1.0  0.77972  0.33657  0.72751  1.0000
  O   O37       1.0  0.78323  0.36618  0.75361  1.0000
  O   O38       1.0  0.75362  0.36618  0.78321  1.0000
  H   H80       1.0  0.72752  0.33657  0.77970  1.0000
  H   H81       1.0  0.72753  0.22049  0.66362  1.0000
  O   O39       1.0  0.75363  0.21699  0.63401  1.0000
  O   O40       1.0  0.78324  0.24659  0.63402  1.0000
  H   H82       1.0  0.77973  0.27269  0.66362  1.0000
  C   C207      1.0  0.66364  0.23159  0.73860  1.0000
  C   C208      1.0  0.64865  0.23159  0.75360  1.0000
  C   C209      1.0  0.64865  0.24659  0.76860  1.0000
  C   C210      1.0  0.66364  0.26159  0.76860  1.0000
  H   H83       1.0  0.66365  0.22049  0.72750  1.0000
  O   O41       1.0  0.63404  0.21698  0.75360  1.0000
  O   O42       1.0  0.63404  0.24659  0.78320  1.0000
  H   H84       1.0  0.66364  0.27269  0.77970  1.0000
  C   C211      1.0  0.73862  0.72367  0.70861  1.0000
  C   C212      1.0  0.72363  0.73866  0.70862  1.0000
  C   C213      1.0  0.70863  0.73866  0.72362  1.0000
  C   C214      1.0  0.70863  0.72367  0.73861  1.0000
  C   C215      1.0  0.72363  0.70867  0.73861  1.0000
  C   C216      1.0  0.73863  0.70867  0.72361  1.0000
  C   C217      1.0  0.69364  0.72367  0.75361  1.0000
  C   C218      1.0  0.67864  0.73866  0.75361  1.0000
  C   C219      1.0  0.67864  0.75366  0.73861  1.0000
  C   C220      1.0  0.69363  0.75366  0.72362  1.0000
  C   C221      1.0  0.75362  0.72367  0.69362  1.0000
  C   C222      1.0  0.75362  0.73866  0.67862  1.0000
  C   C223      1.0  0.73862  0.75366  0.67862  1.0000
  C   C224      1.0  0.72363  0.75366  0.69362  1.0000
  C   C225      1.0  0.75363  0.69367  0.72361  1.0000
  C   C226      1.0  0.75362  0.67868  0.73861  1.0000
  C   C227      1.0  0.73863  0.67868  0.75361  1.0000
  C   C228      1.0  0.72363  0.69367  0.75361  1.0000
  C   C229      1.0  0.73863  0.66368  0.76860  1.0000
  C   C230      1.0  0.75363  0.64868  0.76860  1.0000
  C   C231      1.0  0.76863  0.64868  0.75361  1.0000
  C   C232      1.0  0.76862  0.66368  0.73861  1.0000
  C   C233      1.0  0.66364  0.76866  0.73861  1.0000
  C   C234      1.0  0.64864  0.76866  0.75361  1.0000
  C   C235      1.0  0.64865  0.75366  0.76861  1.0000
  C   C236      1.0  0.66365  0.73866  0.76861  1.0000
  H   H85       1.0  0.69364  0.71256  0.76471  1.0000
  H   H86       1.0  0.69364  0.76476  0.71252  1.0000
  H   H87       1.0  0.76473  0.71256  0.69362  1.0000
  H   H88       1.0  0.71253  0.76476  0.69362  1.0000
  H   H89       1.0  0.76473  0.69367  0.71251  1.0000
  H   H90       1.0  0.71253  0.69367  0.76471  1.0000
  H   H91       1.0  0.72753  0.66368  0.77971  1.0000
  O   O43       1.0  0.75363  0.63407  0.78321  1.0000
  O   O44       1.0  0.78323  0.63407  0.75361  1.0000
  H   H92       1.0  0.77972  0.66368  0.72751  1.0000
  H   H93       1.0  0.66364  0.77976  0.72751  1.0000
  O   O45       1.0  0.63404  0.78327  0.75361  1.0000
  O   O46       1.0  0.63404  0.75366  0.78322  1.0000
  H   H94       1.0  0.66365  0.72756  0.77971  1.0000
  C   C237      1.0  0.73862  0.76866  0.66362  1.0000
  C   C238      1.0  0.75362  0.76866  0.64863  1.0000
  C   C239      1.0  0.76862  0.75366  0.64863  1.0000
  C   C240      1.0  0.76862  0.73866  0.66362  1.0000
  H   H95       1.0  0.72752  0.77976  0.66363  1.0000
  O   O47       1.0  0.75361  0.78327  0.63402  1.0000
  O   O48       1.0  0.78322  0.75366  0.63402  1.0000
  H   H96       1.0  0.77972  0.72756  0.66362  1.0000
  C   C241      1.0  0.17195  0.17201  0.51067  1.0000
  C   C242      1.0  0.17196  0.17201  0.48947  1.0000
  C   C243      1.0  0.18495  0.18500  0.47887  1.0000
  C   C244      1.0  0.19793  0.19798  0.48946  1.0000
  C   C245      1.0  0.19793  0.19798  0.51068  1.0000
  C   C246      1.0  0.18494  0.18500  0.52128  1.0000
  C   C247      1.0  0.21092  0.21097  0.47886  1.0000
  C   C248      1.0  0.21092  0.21097  0.45766  1.0000
  C   C249      1.0  0.19793  0.19799  0.44705  1.0000
  C   C250      1.0  0.18494  0.18500  0.45765  1.0000
  C   C251      1.0  0.15897  0.15902  0.52128  1.0000
  C   C252      1.0  0.14598  0.14603  0.51068  1.0000
  C   C253      1.0  0.14598  0.14603  0.48947  1.0000
  C   C254      1.0  0.15897  0.15902  0.47886  1.0000
  C   C255      1.0  0.18494  0.18500  0.54249  1.0000
  C   C256      1.0  0.19793  0.19798  0.55309  1.0000
  C   C257      1.0  0.21092  0.21097  0.54249  1.0000
  C   C258      1.0  0.21092  0.21097  0.52129  1.0000
  C   C259      1.0  0.22391  0.22396  0.55310  1.0000
  C   C260      1.0  0.22391  0.22396  0.57431  1.0000
  C   C261      1.0  0.21092  0.21097  0.58491  1.0000
  C   C262      1.0  0.19793  0.19798  0.57430  1.0000
  C   C263      1.0  0.19793  0.19798  0.42584  1.0000
  C   C264      1.0  0.21092  0.21097  0.41523  1.0000
  C   C265      1.0  0.22391  0.22396  0.42584  1.0000
  C   C266      1.0  0.22391  0.22396  0.44705  1.0000
  H   H97       1.0  0.22054  0.22059  0.48672  1.0000
  H   H98       1.0  0.17533  0.17538  0.44981  1.0000
  H   H99       1.0  0.15897  0.15902  0.53699  1.0000
  H   H100      1.0  0.15897  0.15902  0.46317  1.0000
  H   H101      1.0  0.17533  0.17538  0.55034  1.0000
  H   H102      1.0  0.22053  0.22059  0.51344  1.0000
  H   H103      1.0  0.23352  0.23357  0.54525  1.0000
  O   O49       1.0  0.23656  0.23661  0.58464  1.0000
  O   O50       1.0  0.21092  0.21097  0.60557  1.0000
  H   H104      1.0  0.18832  0.18837  0.58215  1.0000
  H   H105      1.0  0.18832  0.18837  0.41799  1.0000
  O   O51       1.0  0.21092  0.21097  0.39458  1.0000
  O   O52       1.0  0.23656  0.23661  0.41551  1.0000
  H   H106      1.0  0.23352  0.23358  0.45490  1.0000
  C   C267      1.0  0.13299  0.13304  0.47886  1.0000
  C   C268      1.0  0.12000  0.12006  0.48946  1.0000
  C   C269      1.0  0.12000  0.12006  0.51068  1.0000
  C   C270      1.0  0.13299  0.13305  0.52129  1.0000
  H   H107      1.0  0.13299  0.13305  0.46316  1.0000
  O   O53       1.0  0.10735  0.10741  0.47913  1.0000
  O   O54       1.0  0.10735  0.10741  0.52101  1.0000
  H   H108      1.0  0.13299  0.13305  0.53698  1.0000
  C   C271      1.0  0.80225  0.19799  0.48946  1.0000
  C   C272      1.0  0.81524  0.18501  0.47887  1.0000
  C   C273      1.0  0.82822  0.17202  0.48947  1.0000
  C   C274      1.0  0.82823  0.17202  0.51067  1.0000
  C   C275      1.0  0.81524  0.18501  0.52128  1.0000
  C   C276      1.0  0.80225  0.19799  0.51067  1.0000
  C   C277      1.0  0.84122  0.15903  0.52127  1.0000
  C   C278      1.0  0.85420  0.14604  0.51068  1.0000
  C   C279      1.0  0.85420  0.14604  0.48947  1.0000
  C   C280      1.0  0.84121  0.15903  0.47886  1.0000
  C   C281      1.0  0.78926  0.21098  0.47886  1.0000
  C   C282      1.0  0.78926  0.21098  0.45766  1.0000
  C   C283      1.0  0.80225  0.19799  0.44705  1.0000
  C   C284      1.0  0.81524  0.18501  0.45765  1.0000
  C   C285      1.0  0.78926  0.21098  0.52128  1.0000
  C   C286      1.0  0.78926  0.21098  0.54248  1.0000
  C   C287      1.0  0.80225  0.19799  0.55309  1.0000
  C   C288      1.0  0.81524  0.18501  0.54249  1.0000
  C   C289      1.0  0.80225  0.19799  0.57430  1.0000
  C   C290      1.0  0.78926  0.21098  0.58491  1.0000
  C   C291      1.0  0.77627  0.22397  0.57431  1.0000
  C   C292      1.0  0.77628  0.22397  0.55309  1.0000
  C   C293      1.0  0.86719  0.13305  0.47886  1.0000
  C   C294      1.0  0.88018  0.12007  0.48946  1.0000
  C   C295      1.0  0.88018  0.12007  0.51067  1.0000
  C   C296      1.0  0.86719  0.13306  0.52128  1.0000
  H   H109      1.0  0.84121  0.15903  0.53698  1.0000
  H   H110      1.0  0.84121  0.15903  0.46316  1.0000
  H   H111      1.0  0.77965  0.22060  0.48672  1.0000
  H   H112      1.0  0.82485  0.17539  0.44981  1.0000
  H   H113      1.0  0.77965  0.22060  0.51343  1.0000
  H   H114      1.0  0.82485  0.17539  0.55034  1.0000
  H   H115      1.0  0.81187  0.18838  0.58215  1.0000
  O   O55       1.0  0.78926  0.21098  0.60557  1.0000
  O   O56       1.0  0.76362  0.23662  0.58464  1.0000
  H   H116      1.0  0.76666  0.23358  0.54524  1.0000
  H   H117      1.0  0.86719  0.13305  0.46316  1.0000
  O   O57       1.0  0.89283  0.10742  0.47913  1.0000
  O   O58       1.0  0.89283  0.10742  0.52100  1.0000
  H   H118      1.0  0.86719  0.13305  0.53698  1.0000
  C   C297      1.0  0.80225  0.19799  0.42584  1.0000
  C   C298      1.0  0.78926  0.21098  0.41523  1.0000
  C   C299      1.0  0.77627  0.22397  0.42584  1.0000
  C   C300      1.0  0.77627  0.22397  0.44705  1.0000
  H   H119      1.0  0.81186  0.18838  0.41799  1.0000
  O   O59       1.0  0.78926  0.21098  0.39457  1.0000
  O   O60       1.0  0.76362  0.23662  0.41551  1.0000
  H   H120      1.0  0.76666  0.23359  0.45490  1.0000
  C   C301      1.0  0.80221  0.80227  0.51068  1.0000
  C   C302      1.0  0.81520  0.81526  0.52128  1.0000
  C   C303      1.0  0.82818  0.82824  0.51068  1.0000
  C   C304      1.0  0.82819  0.82825  0.48947  1.0000
  C   C305      1.0  0.81520  0.81526  0.47887  1.0000
  C   C306      1.0  0.80221  0.80227  0.48947  1.0000
  C   C307      1.0  0.84117  0.84124  0.47887  1.0000
  C   C308      1.0  0.85416  0.85422  0.48947  1.0000
  C   C309      1.0  0.85416  0.85422  0.51068  1.0000
  C   C310      1.0  0.84117  0.84123  0.52128  1.0000
  C   C311      1.0  0.78922  0.78928  0.52129  1.0000
  C   C312      1.0  0.78922  0.78928  0.54249  1.0000
  C   C313      1.0  0.80221  0.80227  0.55310  1.0000
  C   C314      1.0  0.81520  0.81526  0.54249  1.0000
  C   C315      1.0  0.78922  0.78928  0.47886  1.0000
  C   C316      1.0  0.78922  0.78928  0.45766  1.0000
  C   C317      1.0  0.80221  0.80227  0.44706  1.0000
  C   C318      1.0  0.81519  0.81526  0.45765  1.0000
  C   C319      1.0  0.80221  0.80227  0.42584  1.0000
  C   C320      1.0  0.78922  0.78928  0.41524  1.0000
  C   C321      1.0  0.77623  0.77629  0.42584  1.0000
  C   C322      1.0  0.77623  0.77630  0.44705  1.0000
  C   C323      1.0  0.86715  0.86721  0.52129  1.0000
  C   C324      1.0  0.88014  0.88020  0.51068  1.0000
  C   C325      1.0  0.88014  0.88020  0.48947  1.0000
  C   C326      1.0  0.86715  0.86721  0.47886  1.0000
  H   H121      1.0  0.84117  0.84123  0.46316  1.0000
  H   H122      1.0  0.84117  0.84123  0.53698  1.0000
  H   H123      1.0  0.77960  0.77967  0.51343  1.0000
  H   H124      1.0  0.82481  0.82487  0.55034  1.0000
  H   H125      1.0  0.77960  0.77967  0.48671  1.0000
  H   H126      1.0  0.82481  0.82487  0.44980  1.0000
  H   H127      1.0  0.81182  0.81189  0.41799  1.0000
  O   O61       1.0  0.78922  0.78928  0.39458  1.0000
  O   O62       1.0  0.76358  0.76364  0.41551  1.0000
  H   H128      1.0  0.76662  0.76668  0.45490  1.0000
  H   H129      1.0  0.86715  0.86721  0.53698  1.0000
  O   O63       1.0  0.89279  0.89285  0.52101  1.0000
  O   O64       1.0  0.89279  0.89285  0.47914  1.0000
  H   H130      1.0  0.86715  0.86721  0.46316  1.0000
  C   C327      1.0  0.80221  0.80227  0.57431  1.0000
  C   C328      1.0  0.78922  0.78928  0.58492  1.0000
  C   C329      1.0  0.77623  0.77630  0.57431  1.0000
  C   C330      1.0  0.77623  0.77629  0.55309  1.0000
  H   H131      1.0  0.81182  0.81189  0.58216  1.0000
  O   O65       1.0  0.78922  0.78928  0.60557  1.0000
  O   O66       1.0  0.76358  0.76365  0.58464  1.0000
  H   H132      1.0  0.76662  0.76668  0.54525  1.0000
  C   C331      1.0  0.17199  0.82826  0.51067  1.0000
  C   C332      1.0  0.17200  0.82826  0.48947  1.0000
  C   C333      1.0  0.18498  0.81527  0.47887  1.0000
  C   C334      1.0  0.19797  0.80228  0.48946  1.0000
  C   C335      1.0  0.19797  0.80228  0.51068  1.0000
  C   C336      1.0  0.18498  0.81527  0.52128  1.0000
  C   C337      1.0  0.21096  0.78930  0.47886  1.0000
  C   C338      1.0  0.21096  0.78929  0.45766  1.0000
  C   C339      1.0  0.19797  0.80228  0.44705  1.0000
  C   C340      1.0  0.18498  0.81527  0.45765  1.0000
  C   C341      1.0  0.15900  0.84125  0.52128  1.0000
  C   C342      1.0  0.14602  0.85423  0.51068  1.0000
  C   C343      1.0  0.14602  0.85423  0.48947  1.0000
  C   C344      1.0  0.15901  0.84125  0.47886  1.0000
  C   C345      1.0  0.18498  0.81527  0.54249  1.0000
  C   C346      1.0  0.19797  0.80228  0.55309  1.0000
  C   C347      1.0  0.21096  0.78930  0.54249  1.0000
  C   C348      1.0  0.21096  0.78929  0.52129  1.0000
  C   C349      1.0  0.22395  0.77631  0.55309  1.0000
  C   C350      1.0  0.22395  0.77631  0.57431  1.0000
  C   C351      1.0  0.21096  0.78929  0.58491  1.0000
  C   C352      1.0  0.19797  0.80228  0.57430  1.0000
  C   C353      1.0  0.19797  0.80228  0.42584  1.0000
  C   C354      1.0  0.21096  0.78930  0.41523  1.0000
  C   C355      1.0  0.22395  0.77631  0.42584  1.0000
  C   C356      1.0  0.22395  0.77630  0.44705  1.0000
  H   H133      1.0  0.22057  0.77968  0.48672  1.0000
  H   H134      1.0  0.17537  0.82488  0.44981  1.0000
  H   H135      1.0  0.15901  0.84124  0.53699  1.0000
  H   H136      1.0  0.15901  0.84124  0.46317  1.0000
  H   H137      1.0  0.17537  0.82488  0.55034  1.0000
  H   H138      1.0  0.22057  0.77968  0.51344  1.0000
  H   H139      1.0  0.23356  0.76669  0.54524  1.0000
  O   O67       1.0  0.23660  0.76366  0.58464  1.0000
  O   O68       1.0  0.21096  0.78929  0.60557  1.0000
  H   H140      1.0  0.18835  0.81190  0.58215  1.0000
  H   H141      1.0  0.18836  0.81190  0.41799  1.0000
  O   O69       1.0  0.21096  0.78930  0.39457  1.0000
  O   O70       1.0  0.23660  0.76366  0.41551  1.0000
  H   H142      1.0  0.23356  0.76669  0.45490  1.0000
  C   C357      1.0  0.13303  0.86722  0.47886  1.0000
  C   C358      1.0  0.12004  0.88021  0.48946  1.0000
  C   C359      1.0  0.12004  0.88021  0.51068  1.0000
  C   C360      1.0  0.13303  0.86722  0.52128  1.0000
  H   H143      1.0  0.13303  0.86722  0.46316  1.0000
  O   O71       1.0  0.10739  0.89286  0.47913  1.0000
  O   O72       1.0  0.10739  0.89286  0.52100  1.0000
  H   H144      1.0  0.13303  0.86722  0.53698  1.0000
  C   C361      1.0  0.48949  0.17199  0.17198  1.0000
  C   C362      1.0  0.51069  0.17200  0.17198  1.0000
  C   C363      1.0  0.52130  0.18499  0.18497  1.0000
  C   C364      1.0  0.51070  0.19797  0.19795  1.0000
  C   C365      1.0  0.48949  0.19797  0.19795  1.0000
  C   C366      1.0  0.47888  0.18498  0.18497  1.0000
  C   C367      1.0  0.52130  0.21096  0.21094  1.0000
  C   C368      1.0  0.54251  0.21096  0.21094  1.0000
  C   C369      1.0  0.55311  0.19797  0.19795  1.0000
  C   C370      1.0  0.54251  0.18498  0.18497  1.0000
  C   C371      1.0  0.47889  0.15901  0.15899  1.0000
  C   C372      1.0  0.48948  0.14602  0.14600  1.0000
  C   C373      1.0  0.51070  0.14602  0.14600  1.0000
  C   C374      1.0  0.52130  0.15901  0.15899  1.0000
  C   C375      1.0  0.45767  0.18499  0.18497  1.0000
  C   C376      1.0  0.44707  0.19797  0.19795  1.0000
  C   C377      1.0  0.45768  0.21096  0.21094  1.0000
  C   C378      1.0  0.47888  0.21096  0.21094  1.0000
  C   C379      1.0  0.44707  0.22395  0.22393  1.0000
  C   C380      1.0  0.42586  0.22395  0.22393  1.0000
  C   C381      1.0  0.41525  0.21096  0.21094  1.0000
  C   C382      1.0  0.42586  0.19797  0.19795  1.0000
  C   C383      1.0  0.57433  0.19797  0.19795  1.0000
  C   C384      1.0  0.58493  0.21096  0.21094  1.0000
  C   C385      1.0  0.57432  0.22395  0.22393  1.0000
  C   C386      1.0  0.55311  0.22395  0.22393  1.0000
  H   H145      1.0  0.51345  0.22058  0.22056  1.0000
  H   H146      1.0  0.55036  0.17537  0.17535  1.0000
  H   H147      1.0  0.46318  0.15901  0.15899  1.0000
  H   H148      1.0  0.53700  0.15901  0.15899  1.0000
  H   H149      1.0  0.44982  0.17537  0.17535  1.0000
  H   H150      1.0  0.48673  0.22057  0.22056  1.0000
  H   H151      1.0  0.45492  0.23356  0.23354  1.0000
  O   O73       1.0  0.41553  0.23660  0.23658  1.0000
  O   O74       1.0  0.39459  0.21096  0.21094  1.0000
  H   H152      1.0  0.41801  0.18836  0.18834  1.0000
  H   H153      1.0  0.58217  0.18836  0.18834  1.0000
  O   O75       1.0  0.60559  0.21096  0.21094  1.0000
  O   O76       1.0  0.58465  0.23660  0.23658  1.0000
  H   H154      1.0  0.54526  0.23356  0.23355  1.0000
  C   C387      1.0  0.52130  0.13303  0.13301  1.0000
  C   C388      1.0  0.51070  0.12004  0.12002  1.0000
  C   C389      1.0  0.48949  0.12004  0.12003  1.0000
  C   C390      1.0  0.47888  0.13303  0.13302  1.0000
  H   H155      1.0  0.53700  0.13303  0.13301  1.0000
  O   O77       1.0  0.52103  0.10739  0.10737  1.0000
  O   O78       1.0  0.47916  0.10739  0.10738  1.0000
  H   H156      1.0  0.46318  0.13303  0.13301  1.0000
  C   C391      1.0  0.80222  0.48951  0.19793  1.0000
  C   C392      1.0  0.81520  0.47892  0.18494  1.0000
  C   C393      1.0  0.82819  0.48952  0.17196  1.0000
  C   C394      1.0  0.82819  0.51072  0.17195  1.0000
  C   C395      1.0  0.81520  0.52133  0.18494  1.0000
  C   C396      1.0  0.80222  0.51073  0.19793  1.0000
  C   C397      1.0  0.84118  0.52133  0.15896  1.0000
  C   C398      1.0  0.85417  0.51073  0.14598  1.0000
  C   C399      1.0  0.85417  0.48952  0.14598  1.0000
  C   C400      1.0  0.84118  0.47891  0.15897  1.0000
  C   C401      1.0  0.78923  0.47891  0.21092  1.0000
  C   C402      1.0  0.78923  0.45771  0.21092  1.0000
  C   C403      1.0  0.80222  0.44710  0.19793  1.0000
  C   C404      1.0  0.81520  0.45770  0.18494  1.0000
  C   C405      1.0  0.78923  0.52134  0.21092  1.0000
  C   C406      1.0  0.78923  0.54254  0.21091  1.0000
  C   C407      1.0  0.80222  0.55314  0.19793  1.0000
  C   C408      1.0  0.81520  0.54254  0.18494  1.0000
  C   C409      1.0  0.80222  0.57435  0.19793  1.0000
  C   C410      1.0  0.78923  0.58496  0.21092  1.0000
  C   C411      1.0  0.77624  0.57436  0.22390  1.0000
  C   C412      1.0  0.77624  0.55315  0.22390  1.0000
  C   C413      1.0  0.86716  0.47891  0.13299  1.0000
  C   C414      1.0  0.88015  0.48951  0.12000  1.0000
  C   C415      1.0  0.88014  0.51073  0.12000  1.0000
  C   C416      1.0  0.86715  0.52134  0.13299  1.0000
  H   H157      1.0  0.84118  0.53704  0.15897  1.0000
  H   H158      1.0  0.84118  0.46322  0.15897  1.0000
  H   H159      1.0  0.77961  0.48677  0.22053  1.0000
  H   H160      1.0  0.82482  0.44986  0.17533  1.0000
  H   H161      1.0  0.77961  0.51349  0.22053  1.0000
  H   H162      1.0  0.82482  0.55039  0.17533  1.0000
  H   H163      1.0  0.81183  0.58220  0.18831  1.0000
  O   O79       1.0  0.78923  0.60562  0.21092  1.0000
  O   O80       1.0  0.76359  0.58469  0.23655  1.0000
  H   H164      1.0  0.76663  0.54530  0.23352  1.0000
  H   H165      1.0  0.86716  0.46321  0.13299  1.0000
  O   O81       1.0  0.89280  0.47919  0.10735  1.0000
  O   O82       1.0  0.89279  0.52106  0.10735  1.0000
  H   H166      1.0  0.86715  0.53703  0.13299  1.0000
  C   C417      1.0  0.80222  0.42589  0.19793  1.0000
  C   C418      1.0  0.78923  0.41528  0.21092  1.0000
  C   C419      1.0  0.77624  0.42589  0.22391  1.0000
  C   C420      1.0  0.77624  0.44710  0.22391  1.0000
  H   H167      1.0  0.81183  0.41804  0.18832  1.0000
  O   O83       1.0  0.78923  0.39462  0.21092  1.0000
  O   O84       1.0  0.76359  0.41556  0.23656  1.0000
  H   H168      1.0  0.76663  0.45495  0.23352  1.0000
  C   C421      1.0  0.48948  0.80226  0.19791  1.0000
  C   C422      1.0  0.47888  0.81524  0.18493  1.0000
  C   C423      1.0  0.48949  0.82823  0.17194  1.0000
  C   C424      1.0  0.51069  0.82823  0.17194  1.0000
  C   C425      1.0  0.52130  0.81524  0.18493  1.0000
  C   C426      1.0  0.51069  0.80226  0.19791  1.0000
  C   C427      1.0  0.52129  0.84122  0.15895  1.0000
  C   C428      1.0  0.51070  0.85421  0.14596  1.0000
  C   C429      1.0  0.48948  0.85421  0.14596  1.0000
  C   C430      1.0  0.47888  0.84122  0.15895  1.0000
  C   C431      1.0  0.47888  0.78927  0.21090  1.0000
  C   C432      1.0  0.45767  0.78927  0.21090  1.0000
  C   C433      1.0  0.44707  0.80226  0.19791  1.0000
  C   C434      1.0  0.45767  0.81524  0.18493  1.0000
  C   C435      1.0  0.52130  0.78927  0.21090  1.0000
  C   C436      1.0  0.54250  0.78927  0.21090  1.0000
  C   C437      1.0  0.55311  0.80226  0.19791  1.0000
  C   C438      1.0  0.54251  0.81524  0.18493  1.0000
  C   C439      1.0  0.57432  0.80226  0.19791  1.0000
  C   C440      1.0  0.58493  0.78927  0.21090  1.0000
  C   C441      1.0  0.57432  0.77628  0.22389  1.0000
  C   C442      1.0  0.55311  0.77628  0.22389  1.0000
  C   C443      1.0  0.47888  0.86720  0.13297  1.0000
  C   C444      1.0  0.48948  0.88019  0.11998  1.0000
  C   C445      1.0  0.51069  0.88018  0.11999  1.0000
  C   C446      1.0  0.52130  0.86719  0.13298  1.0000
  H   H169      1.0  0.53700  0.84122  0.15895  1.0000
  H   H170      1.0  0.46318  0.84122  0.15895  1.0000
  H   H171      1.0  0.48673  0.77965  0.22052  1.0000
  H   H172      1.0  0.44982  0.82486  0.17531  1.0000
  H   H173      1.0  0.51345  0.77965  0.22052  1.0000
  H   H174      1.0  0.55036  0.82486  0.17531  1.0000
  H   H175      1.0  0.58217  0.81187  0.18830  1.0000
  O   O85       1.0  0.60559  0.78927  0.21090  1.0000
  O   O86       1.0  0.58465  0.76363  0.23654  1.0000
  H   H176      1.0  0.54526  0.76667  0.23350  1.0000
  H   H177      1.0  0.46318  0.86720  0.13297  1.0000
  O   O87       1.0  0.47915  0.89284  0.10733  1.0000
  O   O88       1.0  0.52102  0.89283  0.10734  1.0000
  H   H178      1.0  0.53700  0.86720  0.13297  1.0000
  C   C447      1.0  0.42585  0.80226  0.19791  1.0000
  C   C448      1.0  0.41525  0.78927  0.21090  1.0000
  C   C449      1.0  0.42586  0.77628  0.22389  1.0000
  C   C450      1.0  0.44707  0.77628  0.22389  1.0000
  H   H179      1.0  0.41801  0.81187  0.18830  1.0000
  O   O89       1.0  0.39459  0.78927  0.21090  1.0000
  O   O90       1.0  0.41553  0.76363  0.23654  1.0000
  H   H180      1.0  0.45492  0.76667  0.23350  1.0000
  C   C451      1.0  0.17199  0.51073  0.17194  1.0000
  C   C452      1.0  0.17199  0.48953  0.17194  1.0000
  C   C453      1.0  0.18498  0.47892  0.18493  1.0000
  C   C454      1.0  0.19796  0.48952  0.19792  1.0000
  C   C455      1.0  0.19796  0.51073  0.19792  1.0000
  C   C456      1.0  0.18498  0.52134  0.18493  1.0000
  C   C457      1.0  0.21095  0.47891  0.21091  1.0000
  C   C458      1.0  0.21095  0.45771  0.21091  1.0000
  C   C459      1.0  0.19796  0.44710  0.19792  1.0000
  C   C460      1.0  0.18497  0.45771  0.18493  1.0000
  C   C461      1.0  0.15900  0.52133  0.15895  1.0000
  C   C462      1.0  0.14601  0.51073  0.14597  1.0000
  C   C463      1.0  0.14601  0.48952  0.14597  1.0000
  C   C464      1.0  0.15900  0.47892  0.15896  1.0000
  C   C465      1.0  0.18498  0.54255  0.18493  1.0000
  C   C466      1.0  0.19796  0.55314  0.19792  1.0000
  C   C467      1.0  0.21095  0.54254  0.21090  1.0000
  C   C468      1.0  0.21095  0.52134  0.21091  1.0000
  C   C469      1.0  0.22394  0.55315  0.22389  1.0000
  C   C470      1.0  0.22394  0.57436  0.22389  1.0000
  C   C471      1.0  0.21095  0.58497  0.21091  1.0000
  C   C472      1.0  0.19796  0.57436  0.19792  1.0000
  C   C473      1.0  0.19796  0.42589  0.19792  1.0000
  C   C474      1.0  0.21095  0.41529  0.21091  1.0000
  C   C475      1.0  0.22394  0.42589  0.22390  1.0000
  C   C476      1.0  0.22394  0.44711  0.22390  1.0000
  H   H181      1.0  0.22057  0.48677  0.22052  1.0000
  H   H182      1.0  0.17536  0.44986  0.17532  1.0000
  H   H183      1.0  0.15900  0.53704  0.15896  1.0000
  H   H184      1.0  0.15900  0.46322  0.15896  1.0000
  H   H185      1.0  0.17536  0.55040  0.17532  1.0000
  H   H186      1.0  0.22057  0.51349  0.22052  1.0000
  H   H187      1.0  0.23355  0.54530  0.23351  1.0000
  O   O91       1.0  0.23659  0.58469  0.23654  1.0000
  O   O92       1.0  0.21095  0.60562  0.21091  1.0000
  H   H188      1.0  0.18835  0.58221  0.18830  1.0000
  H   H189      1.0  0.18835  0.41804  0.18831  1.0000
  O   O93       1.0  0.21095  0.39463  0.21091  1.0000
  O   O94       1.0  0.23659  0.41557  0.23655  1.0000
  H   H190      1.0  0.23355  0.45495  0.23351  1.0000
  C   C477      1.0  0.13302  0.47891  0.13298  1.0000
  C   C478      1.0  0.12003  0.48952  0.11999  1.0000
  C   C479      1.0  0.12004  0.51073  0.11999  1.0000
  C   C480      1.0  0.13303  0.52134  0.13298  1.0000
  H   H191      1.0  0.13302  0.46322  0.13298  1.0000
  O   O95       1.0  0.10738  0.47919  0.10734  1.0000
  O   O96       1.0  0.10739  0.52106  0.10734  1.0000
  H   H192      1.0  0.13302  0.53704  0.13298  1.0000
  C   C481      1.0  0.48948  0.80226  0.80223  1.0000
  C   C482      1.0  0.47888  0.81525  0.81522  1.0000
  C   C483      1.0  0.48949  0.82824  0.82820  1.0000
  C   C484      1.0  0.51069  0.82824  0.82821  1.0000
  C   C485      1.0  0.52130  0.81525  0.81522  1.0000
  C   C486      1.0  0.51069  0.80226  0.80223  1.0000
  C   C487      1.0  0.52129  0.84123  0.84119  1.0000
  C   C488      1.0  0.51070  0.85421  0.85418  1.0000
  C   C489      1.0  0.48949  0.85421  0.85418  1.0000
  C   C490      1.0  0.47888  0.84123  0.84119  1.0000
  C   C491      1.0  0.47888  0.78928  0.78924  1.0000
  C   C492      1.0  0.45768  0.78927  0.78924  1.0000
  C   C493      1.0  0.44707  0.80226  0.80223  1.0000
  C   C494      1.0  0.45767  0.81525  0.81522  1.0000
  C   C495      1.0  0.52130  0.78927  0.78924  1.0000
  C   C496      1.0  0.54250  0.78928  0.78924  1.0000
  C   C497      1.0  0.55311  0.80226  0.80223  1.0000
  C   C498      1.0  0.54251  0.81525  0.81522  1.0000
  C   C499      1.0  0.57432  0.80226  0.80223  1.0000
  C   C500      1.0  0.58493  0.78927  0.78924  1.0000
  C   C501      1.0  0.57432  0.77628  0.77625  1.0000
  C   C502      1.0  0.55311  0.77629  0.77625  1.0000
  C   C503      1.0  0.47888  0.86720  0.86717  1.0000
  C   C504      1.0  0.48948  0.88019  0.88016  1.0000
  C   C505      1.0  0.51069  0.88019  0.88016  1.0000
  C   C506      1.0  0.52130  0.86720  0.86717  1.0000
  H   H193      1.0  0.53700  0.84122  0.84119  1.0000
  H   H194      1.0  0.46318  0.84122  0.84119  1.0000
  H   H195      1.0  0.48674  0.77966  0.77963  1.0000
  H   H196      1.0  0.44982  0.82486  0.82483  1.0000
  H   H197      1.0  0.51345  0.77966  0.77963  1.0000
  H   H198      1.0  0.55036  0.82486  0.82483  1.0000
  H   H199      1.0  0.58217  0.81188  0.81184  1.0000
  O   O97       1.0  0.60559  0.78927  0.78924  1.0000
  O   O98       1.0  0.58465  0.76363  0.76360  1.0000
  H   H200      1.0  0.54526  0.76667  0.76664  1.0000
  H   H201      1.0  0.46318  0.86720  0.86717  1.0000
  O   O99       1.0  0.47915  0.89284  0.89281  1.0000
  O   O100      1.0  0.52102  0.89284  0.89281  1.0000
  H   H202      1.0  0.53700  0.86720  0.86717  1.0000
  C   C507      1.0  0.42585  0.80226  0.80223  1.0000
  C   C508      1.0  0.41525  0.78928  0.78924  1.0000
  C   C509      1.0  0.42586  0.77629  0.77625  1.0000
  C   C510      1.0  0.44707  0.77628  0.77625  1.0000
  H   H203      1.0  0.41801  0.81188  0.81184  1.0000
  O   O101      1.0  0.39459  0.78927  0.78924  1.0000
  O   O102      1.0  0.41553  0.76363  0.76360  1.0000
  H   H204      1.0  0.45492  0.76667  0.76664  1.0000
  C   C511      1.0  0.17196  0.48952  0.82820  1.0000
  C   C512      1.0  0.17197  0.51073  0.82819  1.0000
  C   C513      1.0  0.18496  0.52133  0.81520  1.0000
  C   C514      1.0  0.19794  0.51073  0.80222  1.0000
  C   C515      1.0  0.19794  0.48952  0.80222  1.0000
  C   C516      1.0  0.18495  0.47892  0.81521  1.0000
  C   C517      1.0  0.21093  0.52134  0.78923  1.0000
  C   C518      1.0  0.21093  0.54254  0.78923  1.0000
  C   C519      1.0  0.19794  0.55315  0.80222  1.0000
  C   C520      1.0  0.18496  0.54254  0.81521  1.0000
  C   C521      1.0  0.15898  0.47892  0.84118  1.0000
  C   C522      1.0  0.14599  0.48952  0.85417  1.0000
  C   C523      1.0  0.14599  0.51073  0.85417  1.0000
  C   C524      1.0  0.15898  0.52133  0.84118  1.0000
  C   C525      1.0  0.18496  0.45770  0.81520  1.0000
  C   C526      1.0  0.19794  0.44711  0.80222  1.0000
  C   C527      1.0  0.21093  0.45771  0.78923  1.0000
  C   C528      1.0  0.21093  0.47891  0.78923  1.0000
  C   C529      1.0  0.22392  0.44710  0.77624  1.0000
  C   C530      1.0  0.22392  0.42589  0.77624  1.0000
  C   C531      1.0  0.21093  0.41529  0.78923  1.0000
  C   C532      1.0  0.19794  0.42589  0.80222  1.0000
  C   C533      1.0  0.19794  0.57436  0.80222  1.0000
  C   C534      1.0  0.21093  0.58497  0.78923  1.0000
  C   C535      1.0  0.22392  0.57436  0.77624  1.0000
  C   C536      1.0  0.22392  0.55314  0.77624  1.0000
  H   H205      1.0  0.22055  0.51348  0.77961  1.0000
  H   H206      1.0  0.17534  0.55039  0.82482  1.0000
  H   H207      1.0  0.15898  0.46321  0.84118  1.0000
  H   H208      1.0  0.15898  0.53703  0.84118  1.0000
  H   H209      1.0  0.17534  0.44985  0.82482  1.0000
  H   H210      1.0  0.22055  0.48676  0.77961  1.0000
  H   H211      1.0  0.23353  0.45495  0.76663  1.0000
  O   O103      1.0  0.23657  0.41556  0.76359  1.0000
  O   O104      1.0  0.21093  0.39463  0.78923  1.0000
  H   H212      1.0  0.18833  0.41804  0.81183  1.0000
  H   H213      1.0  0.18833  0.58221  0.81183  1.0000
  O   O105      1.0  0.21093  0.60562  0.78923  1.0000
  O   O106      1.0  0.23657  0.58469  0.76359  1.0000
  H   H214      1.0  0.23353  0.54530  0.76663  1.0000
  C   C537      1.0  0.13300  0.52134  0.86716  1.0000
  C   C538      1.0  0.12001  0.51073  0.88015  1.0000
  C   C539      1.0  0.12001  0.48952  0.88014  1.0000
  C   C540      1.0  0.13300  0.47891  0.86716  1.0000
  H   H215      1.0  0.13300  0.53703  0.86716  1.0000
  O   O107      1.0  0.10736  0.52106  0.89280  1.0000
  O   O108      1.0  0.10736  0.47919  0.89280  1.0000
  H   H216      1.0  0.13300  0.46321  0.86716  1.0000
  C   C541      1.0  0.48949  0.17199  0.82817  1.0000
  C   C542      1.0  0.51069  0.17199  0.82817  1.0000
  C   C543      1.0  0.52130  0.18498  0.81518  1.0000
  C   C544      1.0  0.51070  0.19796  0.80219  1.0000
  C   C545      1.0  0.48949  0.19797  0.80219  1.0000
  C   C546      1.0  0.47888  0.18498  0.81518  1.0000
  C   C547      1.0  0.52131  0.21095  0.78921  1.0000
  C   C548      1.0  0.54251  0.21096  0.78920  1.0000
  C   C549      1.0  0.55311  0.19797  0.80219  1.0000
  C   C550      1.0  0.54251  0.18498  0.81518  1.0000
  C   C551      1.0  0.47889  0.15900  0.84116  1.0000
  C   C552      1.0  0.48948  0.14602  0.85414  1.0000
  C   C553      1.0  0.51070  0.14601  0.85414  1.0000
  C   C554      1.0  0.52130  0.15900  0.84116  1.0000
  C   C555      1.0  0.45767  0.18498  0.81518  1.0000
  C   C556      1.0  0.44707  0.19796  0.80219  1.0000
  C   C557      1.0  0.45768  0.21095  0.78921  1.0000
  C   C558      1.0  0.47888  0.21096  0.78920  1.0000
  C   C559      1.0  0.44707  0.22394  0.77622  1.0000
  C   C560      1.0  0.42586  0.22394  0.77621  1.0000
  C   C561      1.0  0.41525  0.21096  0.78920  1.0000
  C   C562      1.0  0.42586  0.19797  0.80219  1.0000
  C   C563      1.0  0.57433  0.19796  0.80219  1.0000
  C   C564      1.0  0.58493  0.21095  0.78921  1.0000
  C   C565      1.0  0.57432  0.22394  0.77622  1.0000
  C   C566      1.0  0.55311  0.22394  0.77621  1.0000
  H   H217      1.0  0.51345  0.22057  0.77959  1.0000
  H   H218      1.0  0.55036  0.17537  0.82479  1.0000
  H   H219      1.0  0.46318  0.15900  0.84115  1.0000
  H   H220      1.0  0.53700  0.15900  0.84115  1.0000
  H   H221      1.0  0.44982  0.17537  0.82479  1.0000
  H   H222      1.0  0.48673  0.22057  0.77959  1.0000
  H   H223      1.0  0.45492  0.23356  0.76660  1.0000
  O   O109      1.0  0.41553  0.23659  0.76356  1.0000
  O   O110      1.0  0.39460  0.21095  0.78920  1.0000
  H   H224      1.0  0.41801  0.18835  0.81181  1.0000
  H   H225      1.0  0.58217  0.18835  0.81181  1.0000
  O   O111      1.0  0.60559  0.21095  0.78920  1.0000
  O   O112      1.0  0.58465  0.23659  0.76356  1.0000
  H   H226      1.0  0.54526  0.23356  0.76660  1.0000
  C   C567      1.0  0.52131  0.13303  0.86713  1.0000
  C   C568      1.0  0.51070  0.12004  0.88012  1.0000
  C   C569      1.0  0.48949  0.12004  0.88012  1.0000
  C   C570      1.0  0.47888  0.13303  0.86713  1.0000
  H   H227      1.0  0.53700  0.13303  0.86713  1.0000
  O   O113      1.0  0.52103  0.10739  0.89277  1.0000
  O   O114      1.0  0.47916  0.10739  0.89277  1.0000
  H   H228      1.0  0.46318  0.13303  0.86713  1.0000
  C   C571      1.0  0.80224  0.48951  0.80221  1.0000
  C   C572      1.0  0.81523  0.47892  0.81519  1.0000
  C   C573      1.0  0.82821  0.48952  0.82818  1.0000
  C   C574      1.0  0.82822  0.51072  0.82819  1.0000
  C   C575      1.0  0.81523  0.52133  0.81520  1.0000
  C   C576      1.0  0.80224  0.51073  0.80221  1.0000
  C   C577      1.0  0.84120  0.52133  0.84117  1.0000
  C   C578      1.0  0.85419  0.51073  0.85416  1.0000
  C   C579      1.0  0.85419  0.48952  0.85416  1.0000
  C   C580      1.0  0.84120  0.47891  0.84117  1.0000
  C   C581      1.0  0.78925  0.47891  0.78922  1.0000
  C   C582      1.0  0.78925  0.45771  0.78922  1.0000
  C   C583      1.0  0.80224  0.44710  0.80221  1.0000
  C   C584      1.0  0.81523  0.45770  0.81520  1.0000
  C   C585      1.0  0.78925  0.52134  0.78922  1.0000
  C   C586      1.0  0.78925  0.54254  0.78922  1.0000
  C   C587      1.0  0.80224  0.55314  0.80221  1.0000
  C   C588      1.0  0.81523  0.54254  0.81520  1.0000
  C   C589      1.0  0.80224  0.57435  0.80221  1.0000
  C   C590      1.0  0.78925  0.58496  0.78922  1.0000
  C   C591      1.0  0.77626  0.57436  0.77623  1.0000
  C   C592      1.0  0.77626  0.55314  0.77624  1.0000
  C   C593      1.0  0.86718  0.47891  0.86715  1.0000
  C   C594      1.0  0.88017  0.48951  0.88014  1.0000
  C   C595      1.0  0.88017  0.51073  0.88014  1.0000
  C   C596      1.0  0.86718  0.52134  0.86715  1.0000
  H   H229      1.0  0.84120  0.53704  0.84117  1.0000
  H   H230      1.0  0.84120  0.46322  0.84117  1.0000
  H   H231      1.0  0.77964  0.48677  0.77960  1.0000
  H   H232      1.0  0.82484  0.44986  0.82481  1.0000
  H   H233      1.0  0.77964  0.51349  0.77961  1.0000
  H   H234      1.0  0.82484  0.55039  0.82481  1.0000
  H   H235      1.0  0.81185  0.58220  0.81183  1.0000
  O   O115      1.0  0.78925  0.60562  0.78922  1.0000
  O   O116      1.0  0.76361  0.58469  0.76358  1.0000
  H   H236      1.0  0.76665  0.54529  0.76662  1.0000
  H   H237      1.0  0.86718  0.46321  0.86715  1.0000
  O   O117      1.0  0.89282  0.47919  0.89279  1.0000
  O   O118      1.0  0.89282  0.52106  0.89279  1.0000
  H   H238      1.0  0.86718  0.53703  0.86715  1.0000
  C   C597      1.0  0.80224  0.42589  0.80221  1.0000
  C   C598      1.0  0.78925  0.41528  0.78922  1.0000
  C   C599      1.0  0.77626  0.42589  0.77623  1.0000
  C   C600      1.0  0.77626  0.44710  0.77623  1.0000
  H   H239      1.0  0.81186  0.41804  0.81182  1.0000
  O   O119      1.0  0.78925  0.39462  0.78922  1.0000
  O   O120      1.0  0.76361  0.41556  0.76358  1.0000
  H   H240      1.0  0.76665  0.45495  0.76662  1.0000
  C   C601      1.0  0.92885  0.95926  0.50024  1.0000
  C   C602      1.0  0.92344  0.93863  0.50020  1.0000
  C   C603      1.0  0.93859  0.92348  0.50013  1.0000
  C   C604      1.0  0.95922  0.92887  0.50010  1.0000
  C   C605      1.0  0.96390  0.94944  0.50014  1.0000
  C   C606      1.0  0.94941  0.96393  0.50022  1.0000
  C   C607      1.0  0.95907  0.98264  0.50024  1.0000
  N   N1        1.0  0.98002  0.98004  0.50018  1.0000
  C   C608      1.0  0.98262  0.95909  0.50011  1.0000
  N   N2        1.0  0.00010  0.94879  0.50003  1.0000
  C   C609      1.0  0.01757  0.95909  0.50004  1.0000
  N   N3        1.0  0.02016  0.98004  0.50010  1.0000
  C   C610      1.0  0.04112  0.98264  0.50013  1.0000
  C   C611      1.0  0.05077  0.96393  0.50007  1.0000
  C   C612      1.0  0.03629  0.94944  0.50002  1.0000
  N   N4        1.0  0.02017  0.02018  0.50014  1.0000
  C   C613      1.0  0.04112  0.01759  0.50020  1.0000
  N   N5        1.0  0.05142  0.00010  0.50022  1.0000
  C   C614      1.0  0.05077  0.03630  0.50016  1.0000
  C   C615      1.0  0.03628  0.05079  0.50008  1.0000
  C   C616      1.0  0.01757  0.04114  0.50006  1.0000
  C   C617      1.0  0.04097  0.92887  0.49999  1.0000
  C   C618      1.0  0.06160  0.92348  0.49999  1.0000
  C   C619      1.0  0.07675  0.93864  0.50001  1.0000
  C   C620      1.0  0.07134  0.95927  0.50006  1.0000
  C   C621      1.0  0.04096  0.07136  0.50005  1.0000
  C   C622      1.0  0.06158  0.07676  0.50011  1.0000
  C   C623      1.0  0.07673  0.06161  0.50017  1.0000
  C   C624      1.0  0.07134  0.04098  0.50019  1.0000
  N   N6        1.0  0.98002  0.02019  0.50012  1.0000
  C   C625      1.0  0.98263  0.04114  0.50004  1.0000
  N   N7        1.0  0.00010  0.05144  0.49997  1.0000
  C   C626      1.0  0.96391  0.05079  0.50004  1.0000
  C   C627      1.0  0.94942  0.03631  0.50013  1.0000
  C   C628      1.0  0.95907  0.01759  0.50019  1.0000
  C   C629      1.0  0.92886  0.04099  0.50013  1.0000
  C   C630      1.0  0.92346  0.06162  0.50005  1.0000
  C   C631      1.0  0.93862  0.07677  0.49999  1.0000
  C   C632      1.0  0.95925  0.07136  0.49998  1.0000
  N   N8        1.0  0.94877  0.00010  0.50029  1.0000
  H   H241      1.0  0.91879  0.96965  0.50029  1.0000
  O   O121      1.0  0.90616  0.93395  0.50021  1.0000
  O   O122      1.0  0.93391  0.90620  0.50011  1.0000
  H   H242      1.0  0.96961  0.91882  0.50005  1.0000
  H   H243      1.0  0.03059  0.91881  0.49997  1.0000
  O   O123      1.0  0.06630  0.90621  0.49999  1.0000
  O   O124      1.0  0.09403  0.93397  0.49997  1.0000
  H   H244      1.0  0.08139  0.96966  0.50008  1.0000
  H   H245      1.0  0.03057  0.08142  0.50000  1.0000
  O   O125      1.0  0.06626  0.09404  0.50011  1.0000
  O   O126      1.0  0.09401  0.06629  0.50021  1.0000
  H   H246      1.0  0.08140  0.03060  0.50023  1.0000
  H   H247      1.0  0.91879  0.03060  0.50018  1.0000
  O   O127      1.0  0.90619  0.06631  0.50002  1.0000
  O   O128      1.0  0.93394  0.09405  0.49995  1.0000
  H   H248      1.0  0.96964  0.08141  0.49993  1.0000
  Ni  Ni1       1.0  0.00010  0.00010  0.50017  1.0000
  C   C633      1.0  0.49992  0.04099  0.07135  1.0000
  C   C634      1.0  0.49997  0.06162  0.07676  1.0000
  C   C635      1.0  0.50003  0.07677  0.06161  1.0000
  C   C636      1.0  0.50006  0.07138  0.04098  1.0000
  C   C637      1.0  0.50002  0.05081  0.03630  1.0000
  C   C638      1.0  0.49994  0.03632  0.05079  1.0000
  C   C639      1.0  0.49992  0.01761  0.04113  1.0000
  N   N9        1.0  0.49998  0.02021  0.02018  1.0000
  C   C640      1.0  0.50005  0.04116  0.01758  1.0000
  N   N10       1.0  0.50014  0.05146  0.00010  1.0000
  C   C641      1.0  0.50012  0.04116  0.98263  1.0000
  N   N11       1.0  0.50006  0.02021  0.98004  1.0000
  C   C642      1.0  0.50003  0.01761  0.95908  1.0000
  C   C643      1.0  0.50009  0.03632  0.94943  1.0000
  C   C644      1.0  0.50014  0.05081  0.96391  1.0000
  N   N12       1.0  0.50002  0.98007  0.98003  1.0000
  C   C645      1.0  0.49997  0.98266  0.95908  1.0000
  N   N13       1.0  0.49994  0.00010  0.94878  1.0000
  C   C646      1.0  0.50000  0.96395  0.94943  1.0000
  C   C647      1.0  0.50008  0.94946  0.96392  1.0000
  C   C648      1.0  0.50010  0.95911  0.98263  1.0000
  C   C649      1.0  0.50017  0.07138  0.95923  1.0000
  C   C650      1.0  0.50017  0.07677  0.93860  1.0000
  C   C651      1.0  0.50016  0.06161  0.92345  1.0000
  C   C652      1.0  0.50010  0.04099  0.92886  1.0000
  C   C653      1.0  0.50011  0.92889  0.95924  1.0000
  C   C654      1.0  0.50006  0.92349  0.93862  1.0000
  C   C655      1.0  0.49999  0.93864  0.92347  1.0000
  C   C656      1.0  0.49997  0.95927  0.92886  1.0000
  N   N14       1.0  0.50004  0.98006  0.02018  1.0000
  C   C657      1.0  0.50013  0.95911  0.01757  1.0000
  N   N15       1.0  0.50019  0.94881  0.00010  1.0000
  C   C658      1.0  0.50012  0.94946  0.03629  1.0000
  C   C659      1.0  0.50003  0.96394  0.05078  1.0000
  C   C660      1.0  0.49997  0.98266  0.04113  1.0000
  C   C661      1.0  0.50003  0.95926  0.07134  1.0000
  C   C662      1.0  0.50012  0.93863  0.07674  1.0000
  C   C663      1.0  0.50017  0.92348  0.06158  1.0000
  C   C664      1.0  0.50018  0.92889  0.04095  1.0000
  N   N16       1.0  0.49987  0.00010  0.05143  1.0000
  H   H249      1.0  0.49988  0.03060  0.08141  1.0000
  O   O129      1.0  0.49995  0.06630  0.09404  1.0000
  O   O130      1.0  0.50006  0.09405  0.06629  1.0000
  H   H250      1.0  0.50011  0.08143  0.03059  1.0000
  H   H251      1.0  0.50019  0.08144  0.96961  1.0000
  O   O131      1.0  0.50018  0.09404  0.93390  1.0000
  O   O132      1.0  0.50019  0.06628  0.90617  1.0000
  H   H252      1.0  0.50008  0.03059  0.91881  1.0000
  H   H253      1.0  0.50016  0.91883  0.96963  1.0000
  O   O133      1.0  0.50005  0.90621  0.93394  1.0000
  O   O134      1.0  0.49996  0.93396  0.90619  1.0000
  H   H254      1.0  0.49993  0.96965  0.91880  1.0000
  H   H255      1.0  0.49998  0.96965  0.08141  1.0000
  O   O135      1.0  0.50015  0.93394  0.09401  1.0000
  O   O136      1.0  0.50022  0.90620  0.06626  1.0000
  H   H256      1.0  0.50023  0.91884  0.03056  1.0000
  Ni  Ni2       1.0  0.49999  0.00010  0.00010  1.0000
  C   C665      1.0  0.92885  0.50030  0.04097  1.0000
  C   C666      1.0  0.92344  0.50025  0.06160  1.0000
  C   C667      1.0  0.93859  0.50019  0.07675  1.0000
  C   C668      1.0  0.95922  0.50015  0.07135  1.0000
  C   C669      1.0  0.96390  0.50019  0.05079  1.0000
  C   C670      1.0  0.94941  0.50028  0.03629  1.0000
  C   C671      1.0  0.95907  0.50030  0.01758  1.0000
  N   N17       1.0  0.98002  0.50023  0.02018  1.0000
  C   C672      1.0  0.98262  0.50017  0.04113  1.0000
  N   N18       1.0  0.00010  0.50008  0.05144  1.0000
  C   C673      1.0  0.01757  0.50009  0.04114  1.0000
  N   N19       1.0  0.02016  0.50016  0.02018  1.0000
  C   C674      1.0  0.04112  0.50019  0.01758  1.0000
  C   C675      1.0  0.05077  0.50012  0.03629  1.0000
  C   C676      1.0  0.03629  0.50008  0.05079  1.0000
  N   N20       1.0  0.02017  0.50020  0.98004  1.0000
  C   C677      1.0  0.04112  0.50025  0.98264  1.0000
  N   N21       1.0  0.05142  0.50028  0.00010  1.0000
  C   C678      1.0  0.05077  0.50021  0.96392  1.0000
  C   C679      1.0  0.03628  0.50014  0.94943  1.0000
  C   C680      1.0  0.01757  0.50011  0.95909  1.0000
  C   C681      1.0  0.04097  0.50005  0.07135  1.0000
  C   C682      1.0  0.06160  0.50005  0.07674  1.0000
  C   C683      1.0  0.07675  0.50006  0.06158  1.0000
  C   C684      1.0  0.07134  0.50012  0.04096  1.0000
  C   C685      1.0  0.04096  0.50010  0.92887  1.0000
  C   C686      1.0  0.06158  0.50016  0.92347  1.0000
  C   C687      1.0  0.07673  0.50022  0.93862  1.0000
  C   C688      1.0  0.07134  0.50025  0.95924  1.0000
  N   N22       1.0  0.98002  0.50018  0.98004  1.0000
  C   C689      1.0  0.98263  0.50009  0.95909  1.0000
  N   N23       1.0  0.00010  0.50003  0.94879  1.0000
  C   C690      1.0  0.96391  0.50010  0.94943  1.0000
  C   C691      1.0  0.94942  0.50019  0.96392  1.0000
  C   C692      1.0  0.95907  0.50025  0.98264  1.0000
  C   C693      1.0  0.92886  0.50019  0.95924  1.0000
  C   C694      1.0  0.92346  0.50010  0.93861  1.0000
  C   C695      1.0  0.93862  0.50004  0.92346  1.0000
  C   C696      1.0  0.95925  0.50004  0.92887  1.0000
  N   N24       1.0  0.94877  0.50034  0.00010  1.0000
  H   H257      1.0  0.91879  0.50034  0.03058  1.0000
  O   O137      1.0  0.90616  0.50027  0.06628  1.0000
  O   O138      1.0  0.93391  0.50016  0.09403  1.0000
  H   H258      1.0  0.96961  0.50010  0.08141  1.0000
  H   H259      1.0  0.03059  0.50003  0.08142  1.0000
  O   O139      1.0  0.06630  0.50004  0.09402  1.0000
  O   O140      1.0  0.09403  0.50003  0.06626  1.0000
  H   H260      1.0  0.08139  0.50013  0.03057  1.0000
  H   H261      1.0  0.03057  0.50005  0.91881  1.0000
  O   O141      1.0  0.06626  0.50016  0.90619  1.0000
  O   O142      1.0  0.09401  0.50026  0.93393  1.0000
  H   H262      1.0  0.08140  0.50029  0.96963  1.0000
  H   H263      1.0  0.91879  0.50023  0.96962  1.0000
  O   O143      1.0  0.90619  0.50007  0.93392  1.0000
  O   O144      1.0  0.93394  0.50000  0.90618  1.0000
  H   H264      1.0  0.96964  0.49999  0.91881  1.0000
  Ni  Ni3       1.0  0.00010  0.50022  0.00010  1.0000
  Zn  Zn1       1.0  0.22775  0.22780  0.38559  1.0000
  Zn  Zn2       1.0  0.77244  0.22780  0.38559  1.0000
  Zn  Zn3       1.0  0.77241  0.77246  0.38559  1.0000
  Zn  Zn4       1.0  0.22777  0.77247  0.38558  1.0000
  Zn  Zn5       1.0  0.22777  0.77247  0.61456  1.0000
  Zn  Zn6       1.0  0.22774  0.22779  0.61456  1.0000
  Zn  Zn7       1.0  0.77244  0.22780  0.61456  1.0000
  Zn  Zn8       1.0  0.77241  0.77246  0.61456  1.0000
  Zn  Zn9       1.0  0.38561  0.22778  0.22776  1.0000
  Zn  Zn10      1.0  0.77242  0.38564  0.22774  1.0000
  Zn  Zn11      1.0  0.61457  0.77246  0.22772  1.0000
  Zn  Zn12      1.0  0.22777  0.61461  0.22773  1.0000
  Zn  Zn13      1.0  0.38561  0.77246  0.77242  1.0000
  Zn  Zn14      1.0  0.22775  0.38564  0.77241  1.0000
  Zn  Zn15      1.0  0.61458  0.22778  0.77239  1.0000
  Zn  Zn16      1.0  0.77243  0.61461  0.77241  1.0000
  Zn  Zn17      1.0  0.22777  0.38564  0.22773  1.0000
  Zn  Zn18      1.0  0.22775  0.61461  0.77241  1.0000
  Zn  Zn19      1.0  0.38560  0.22778  0.77239  1.0000
  Zn  Zn20      1.0  0.77243  0.38564  0.77241  1.0000
  Zn  Zn21      1.0  0.61458  0.77246  0.77242  1.0000
  Zn  Zn22      1.0  0.77241  0.61461  0.22774  1.0000
  Zn  Zn23      1.0  0.38561  0.77246  0.22772  1.0000
  Zn  Zn24      1.0  0.61458  0.22778  0.22776  1.0000
  Zn  Zn25      1.0  0.09374  0.09379  0.50011  1.0000
  Zn  Zn26      1.0  0.90644  0.09380  0.50003  1.0000
  Zn  Zn27      1.0  0.90641  0.90646  0.50011  1.0000
  Zn  Zn28      1.0  0.09378  0.90647  0.50003  1.0000
  Zn  Zn29      1.0  0.50005  0.09379  0.09379  1.0000
  Zn  Zn30      1.0  0.90642  0.50017  0.09377  1.0000
  Zn  Zn31      1.0  0.50014  0.90645  0.09375  1.0000
  Zn  Zn32      1.0  0.09377  0.50008  0.09373  1.0000
  Zn  Zn33      1.0  0.50005  0.90646  0.90642  1.0000
  Zn  Zn34      1.0  0.09376  0.50017  0.90644  1.0000
  Zn  Zn35      1.0  0.50014  0.09378  0.90639  1.0000
  Zn  Zn36      1.0  0.90644  0.50008  0.90640  1.0000
