data_image0
_chemical_formula_structural       C18HO2H2O2H2O2HC18HO2H2O2H2O2HC18HO2H2O2H2O2HC18HO2H2O2H2O2HC18HO2H2O2H2O2HC18HO2H2O2H2O2HC18HO2H2O2H2O2HC18HO2H2O2H2O2HC18HO2H2O2H2O2HC18HO2H2O2H2O2HC18HO2H2O2H2O2HC18HO2H2O2H2O2HC18HO2H2O2H2O2HC18HO2H2O2H2O2HC18HO2H2O2H2O2HC18HO2H2O2H2O2HC18HO2H2O2H2O2HC18HO2H2O2H2O2HC18HO2H2O2H2O2HC18HO2H2O2H2O2HC7NCNCNC3NCNC11NCNC7NHO2H2O2H2O2H2O2HNiC7NCNCNC3NCNC11NCNC7NHO2H2O2H2O2H2O2HNiC7NCNCNC3NCNC11NCNC7NHO2H2O2H2O2H2O2HNiZn36
_chemical_formula_sum              "C456 H144 O144 N24 Ni3 Zn36"
_cell_length_a       52.2065
_cell_length_b       52.2059
_cell_length_c       52.2068
_cell_angle_alpha    90.0001
_cell_angle_beta     90.0003
_cell_angle_gamma    90.001

_space_group_name_H-M_alt    "P 1"
_space_group_IT_number       1

loop_
  _space_group_symop_operation_xyz
  'x, y, z'

loop_
  _atom_site_type_symbol
  _atom_site_label
  _atom_site_symmetry_multiplicity
  _atom_site_fract_x
  _atom_site_fract_y
  _atom_site_fract_z
  _atom_site_occupancy
  C   C1        1.0  0.29724  0.31644  0.27781  1.0000
  C   C2        1.0  0.27828  0.31644  0.29677  1.0000
  C   C3        1.0  0.27827  0.29748  0.31574  1.0000
  C   C4        1.0  0.29723  0.27852  0.31574  1.0000
  C   C5        1.0  0.31620  0.27852  0.29678  1.0000
  C   C6        1.0  0.31620  0.29748  0.27782  1.0000
  C   C7        1.0  0.29723  0.25956  0.33470  1.0000
  C   C8        1.0  0.27827  0.25956  0.35366  1.0000
  C   C9        1.0  0.25931  0.27852  0.35366  1.0000
  C   C10       1.0  0.25931  0.29748  0.33470  1.0000
  C   C11       1.0  0.29724  0.33540  0.25885  1.0000
  C   C12       1.0  0.27828  0.35437  0.25885  1.0000
  C   C13       1.0  0.25932  0.35437  0.27781  1.0000
  C   C14       1.0  0.25931  0.33541  0.29677  1.0000
  C   C15       1.0  0.33517  0.29748  0.25886  1.0000
  C   C16       1.0  0.35413  0.27851  0.25886  1.0000
  C   C17       1.0  0.35412  0.25955  0.27782  1.0000
  C   C18       1.0  0.33516  0.25955  0.29678  1.0000
  H   H1        1.0  0.31145  0.24533  0.33470  1.0000
  O   O1        1.0  0.27827  0.24249  0.37073  1.0000
  O   O2        1.0  0.24224  0.27852  0.37072  1.0000
  H   H2        1.0  0.24509  0.31170  0.33469  1.0000
  H   H3        1.0  0.31147  0.33540  0.24463  1.0000
  O   O3        1.0  0.27828  0.37143  0.24178  1.0000
  O   O4        1.0  0.24225  0.37143  0.27781  1.0000
  H   H4        1.0  0.24509  0.33541  0.31099  1.0000
  H   H5        1.0  0.33517  0.31170  0.24463  1.0000
  O   O5        1.0  0.37119  0.27851  0.24179  1.0000
  O   O6        1.0  0.37119  0.24249  0.27782  1.0000
  H   H6        1.0  0.33516  0.24533  0.31100  1.0000
  C   C19       1.0  0.70411  0.27852  0.31575  1.0000
  C   C20       1.0  0.72308  0.29748  0.31574  1.0000
  C   C21       1.0  0.72307  0.31644  0.29678  1.0000
  C   C22       1.0  0.70411  0.31644  0.27782  1.0000
  C   C23       1.0  0.68515  0.29748  0.27782  1.0000
  C   C24       1.0  0.68515  0.27852  0.29678  1.0000
  C   C25       1.0  0.70411  0.33540  0.25886  1.0000
  C   C26       1.0  0.72307  0.35437  0.25886  1.0000
  C   C27       1.0  0.74203  0.35437  0.27782  1.0000
  C   C28       1.0  0.74203  0.33541  0.29678  1.0000
  C   C29       1.0  0.70412  0.25956  0.33471  1.0000
  C   C30       1.0  0.72308  0.25956  0.35367  1.0000
  C   C31       1.0  0.74204  0.27852  0.35367  1.0000
  C   C32       1.0  0.74204  0.29748  0.33470  1.0000
  C   C33       1.0  0.66619  0.25955  0.29679  1.0000
  C   C34       1.0  0.64722  0.25955  0.27783  1.0000
  C   C35       1.0  0.64722  0.27851  0.25886  1.0000
  C   C36       1.0  0.66618  0.29748  0.25886  1.0000
  H   H7        1.0  0.68988  0.33540  0.24464  1.0000
  O   O7        1.0  0.72307  0.37143  0.24179  1.0000
  O   O8        1.0  0.75910  0.37144  0.27781  1.0000
  H   H8        1.0  0.75626  0.33541  0.31100  1.0000
  H   H9        1.0  0.68990  0.24533  0.33471  1.0000
  O   O9        1.0  0.72308  0.24249  0.37073  1.0000
  O   O10       1.0  0.75911  0.27852  0.37073  1.0000
  H   H10       1.0  0.75626  0.31171  0.33470  1.0000
  H   H11       1.0  0.66619  0.24533  0.31101  1.0000
  O   O11       1.0  0.63016  0.24249  0.27783  1.0000
  O   O12       1.0  0.63015  0.27851  0.24180  1.0000
  H   H12       1.0  0.66618  0.31170  0.24464  1.0000
  C   C37       1.0  0.72306  0.70435  0.31573  1.0000
  C   C38       1.0  0.70410  0.72331  0.31573  1.0000
  C   C39       1.0  0.68514  0.72331  0.29677  1.0000
  C   C40       1.0  0.68514  0.70435  0.27780  1.0000
  C   C41       1.0  0.70410  0.68539  0.27781  1.0000
  C   C42       1.0  0.72306  0.68539  0.29677  1.0000
  C   C43       1.0  0.66618  0.70435  0.25884  1.0000
  C   C44       1.0  0.64721  0.72331  0.25884  1.0000
  C   C45       1.0  0.64721  0.74227  0.27780  1.0000
  C   C46       1.0  0.66617  0.74227  0.29677  1.0000
  C   C47       1.0  0.74202  0.70435  0.33470  1.0000
  C   C48       1.0  0.74202  0.72331  0.35366  1.0000
  C   C49       1.0  0.72306  0.74227  0.35366  1.0000
  C   C50       1.0  0.70410  0.74227  0.33469  1.0000
  C   C51       1.0  0.74202  0.66642  0.29677  1.0000
  C   C52       1.0  0.74202  0.64746  0.27781  1.0000
  C   C53       1.0  0.72306  0.64746  0.25885  1.0000
  C   C54       1.0  0.70410  0.66642  0.25884  1.0000
  H   H13       1.0  0.66618  0.69013  0.24462  1.0000
  O   O13       1.0  0.63015  0.72331  0.24177  1.0000
  O   O14       1.0  0.63015  0.75934  0.27780  1.0000
  H   H14       1.0  0.66617  0.75650  0.31099  1.0000
  H   H15       1.0  0.75624  0.69013  0.33470  1.0000
  O   O15       1.0  0.75908  0.72331  0.37072  1.0000
  O   O16       1.0  0.72306  0.75934  0.37072  1.0000
  H   H16       1.0  0.68987  0.75650  0.33469  1.0000
  H   H17       1.0  0.75624  0.66642  0.31099  1.0000
  O   O17       1.0  0.75909  0.63040  0.27781  1.0000
  O   O18       1.0  0.72306  0.63040  0.24178  1.0000
  H   H18       1.0  0.68988  0.66642  0.24462  1.0000
  C   C55       1.0  0.27828  0.68539  0.29677  1.0000
  C   C56       1.0  0.29725  0.68539  0.27780  1.0000
  C   C57       1.0  0.31621  0.70436  0.27780  1.0000
  C   C58       1.0  0.31621  0.72332  0.29677  1.0000
  C   C59       1.0  0.29725  0.72332  0.31573  1.0000
  C   C60       1.0  0.27828  0.70436  0.31573  1.0000
  C   C61       1.0  0.33517  0.74228  0.29676  1.0000
  C   C62       1.0  0.35413  0.74228  0.27780  1.0000
  C   C63       1.0  0.35413  0.72332  0.25884  1.0000
  C   C64       1.0  0.33517  0.70436  0.25884  1.0000
  C   C65       1.0  0.25932  0.66643  0.29677  1.0000
  C   C66       1.0  0.25932  0.64747  0.27781  1.0000
  C   C67       1.0  0.27828  0.64747  0.25884  1.0000
  C   C68       1.0  0.29724  0.66643  0.25884  1.0000
  C   C69       1.0  0.25932  0.70436  0.33469  1.0000
  C   C70       1.0  0.25932  0.72332  0.35365  1.0000
  C   C71       1.0  0.27829  0.74228  0.35365  1.0000
  C   C72       1.0  0.29725  0.74228  0.33469  1.0000
  H   H19       1.0  0.33517  0.75650  0.31099  1.0000
  O   O19       1.0  0.37120  0.75935  0.27780  1.0000
  O   O20       1.0  0.37120  0.72332  0.24177  1.0000
  H   H20       1.0  0.33517  0.69013  0.24462  1.0000
  H   H21       1.0  0.24510  0.66643  0.31099  1.0000
  O   O21       1.0  0.24225  0.63040  0.27781  1.0000
  O   O22       1.0  0.27828  0.63040  0.24178  1.0000
  H   H22       1.0  0.31147  0.66643  0.24462  1.0000
  H   H23       1.0  0.24510  0.69013  0.33469  1.0000
  O   O23       1.0  0.24226  0.72332  0.37072  1.0000
  O   O24       1.0  0.27829  0.75935  0.37072  1.0000
  H   H24       1.0  0.31147  0.75650  0.33469  1.0000
  C   C73       1.0  0.29724  0.72332  0.68469  1.0000
  C   C74       1.0  0.27828  0.70436  0.68469  1.0000
  C   C75       1.0  0.27828  0.68539  0.70365  1.0000
  C   C76       1.0  0.29724  0.68539  0.72261  1.0000
  C   C77       1.0  0.31620  0.70436  0.72261  1.0000
  C   C78       1.0  0.31620  0.72332  0.70365  1.0000
  C   C79       1.0  0.29723  0.66643  0.74157  1.0000
  C   C80       1.0  0.27827  0.64747  0.74157  1.0000
  C   C81       1.0  0.25931  0.64747  0.72261  1.0000
  C   C82       1.0  0.25931  0.66643  0.70365  1.0000
  C   C83       1.0  0.29724  0.74228  0.66573  1.0000
  C   C84       1.0  0.27828  0.74228  0.64676  1.0000
  C   C85       1.0  0.25932  0.72332  0.64676  1.0000
  C   C86       1.0  0.25932  0.70436  0.66572  1.0000
  C   C87       1.0  0.33517  0.74228  0.70365  1.0000
  C   C88       1.0  0.35413  0.74228  0.72262  1.0000
  C   C89       1.0  0.35412  0.72332  0.74158  1.0000
  C   C90       1.0  0.33516  0.70435  0.74158  1.0000
  H   H25       1.0  0.31145  0.66643  0.75580  1.0000
  O   O25       1.0  0.27827  0.63040  0.75864  1.0000
  O   O26       1.0  0.24224  0.63040  0.72261  1.0000
  H   H26       1.0  0.24509  0.66643  0.68942  1.0000
  H   H27       1.0  0.31147  0.75650  0.66573  1.0000
  O   O27       1.0  0.27828  0.75935  0.62970  1.0000
  O   O28       1.0  0.24225  0.72332  0.62969  1.0000
  H   H28       1.0  0.24509  0.69014  0.66572  1.0000
  H   H29       1.0  0.33517  0.75650  0.68943  1.0000
  O   O29       1.0  0.37119  0.75934  0.72262  1.0000
  O   O30       1.0  0.37119  0.72332  0.75865  1.0000
  H   H30       1.0  0.33516  0.69013  0.75580  1.0000
  C   C91       1.0  0.29723  0.31644  0.72261  1.0000
  C   C92       1.0  0.27827  0.31644  0.70364  1.0000
  C   C93       1.0  0.27827  0.29748  0.68468  1.0000
  C   C94       1.0  0.29723  0.27852  0.68468  1.0000
  C   C95       1.0  0.31619  0.27851  0.70364  1.0000
  C   C96       1.0  0.31619  0.29748  0.72260  1.0000
  C   C97       1.0  0.29723  0.25955  0.66572  1.0000
  C   C98       1.0  0.27826  0.25955  0.64676  1.0000
  C   C99       1.0  0.25930  0.27852  0.64676  1.0000
  C   C100      1.0  0.25930  0.29748  0.66572  1.0000
  C   C101      1.0  0.29723  0.33540  0.74157  1.0000
  C   C102      1.0  0.27827  0.35436  0.74157  1.0000
  C   C103      1.0  0.25931  0.35436  0.72261  1.0000
  C   C104      1.0  0.25931  0.33540  0.70365  1.0000
  C   C105      1.0  0.33516  0.29748  0.74156  1.0000
  C   C106      1.0  0.35412  0.27851  0.74156  1.0000
  C   C107      1.0  0.35412  0.25955  0.72260  1.0000
  C   C108      1.0  0.33515  0.25955  0.70364  1.0000
  H   H31       1.0  0.31145  0.24533  0.66572  1.0000
  O   O31       1.0  0.27826  0.24249  0.62969  1.0000
  O   O32       1.0  0.24224  0.27852  0.62969  1.0000
  H   H32       1.0  0.24508  0.31170  0.66572  1.0000
  H   H33       1.0  0.31145  0.33540  0.75579  1.0000
  O   O33       1.0  0.27827  0.37143  0.75864  1.0000
  O   O34       1.0  0.24224  0.37143  0.72261  1.0000
  H   H34       1.0  0.24508  0.33540  0.68943  1.0000
  H   H35       1.0  0.33516  0.31170  0.75579  1.0000
  O   O35       1.0  0.37119  0.27851  0.75863  1.0000
  O   O36       1.0  0.37118  0.24249  0.72260  1.0000
  H   H36       1.0  0.33515  0.24533  0.68942  1.0000
  C   C109      1.0  0.70412  0.27851  0.68468  1.0000
  C   C110      1.0  0.72308  0.29748  0.68468  1.0000
  C   C111      1.0  0.72308  0.31644  0.70364  1.0000
  C   C112      1.0  0.70412  0.31644  0.72260  1.0000
  C   C113      1.0  0.68516  0.29748  0.72260  1.0000
  C   C114      1.0  0.68516  0.27851  0.70364  1.0000
  C   C115      1.0  0.70412  0.33540  0.74156  1.0000
  C   C116      1.0  0.72308  0.35436  0.74157  1.0000
  C   C117      1.0  0.74204  0.35436  0.72260  1.0000
  C   C118      1.0  0.74204  0.33540  0.70364  1.0000
  C   C119      1.0  0.70412  0.25955  0.66571  1.0000
  C   C120      1.0  0.72309  0.25955  0.64675  1.0000
  C   C121      1.0  0.74205  0.27852  0.64675  1.0000
  C   C122      1.0  0.74205  0.29748  0.66572  1.0000
  C   C123      1.0  0.66620  0.25955  0.70364  1.0000
  C   C124      1.0  0.64723  0.25955  0.72260  1.0000
  C   C125      1.0  0.64723  0.27851  0.74156  1.0000
  C   C126      1.0  0.66619  0.29748  0.74156  1.0000
  H   H37       1.0  0.68990  0.33540  0.75578  1.0000
  O   O37       1.0  0.72308  0.37143  0.75863  1.0000
  O   O38       1.0  0.75911  0.37143  0.72261  1.0000
  H   H38       1.0  0.75627  0.33540  0.68942  1.0000
  H   H39       1.0  0.68990  0.24533  0.66571  1.0000
  O   O39       1.0  0.72309  0.24249  0.62969  1.0000
  O   O40       1.0  0.75911  0.27852  0.62969  1.0000
  H   H40       1.0  0.75627  0.31170  0.66572  1.0000
  H   H41       1.0  0.66620  0.24533  0.68941  1.0000
  O   O41       1.0  0.63017  0.24248  0.72259  1.0000
  O   O42       1.0  0.63016  0.27851  0.75862  1.0000
  H   H42       1.0  0.66619  0.31170  0.75578  1.0000
  C   C127      1.0  0.70411  0.68539  0.72261  1.0000
  C   C128      1.0  0.72307  0.68539  0.70365  1.0000
  C   C129      1.0  0.72307  0.70435  0.68469  1.0000
  C   C130      1.0  0.70410  0.72331  0.68469  1.0000
  C   C131      1.0  0.68514  0.72331  0.70365  1.0000
  C   C132      1.0  0.68515  0.70435  0.72261  1.0000
  C   C133      1.0  0.70410  0.74228  0.66573  1.0000
  C   C134      1.0  0.72306  0.74228  0.64676  1.0000
  C   C135      1.0  0.74202  0.72331  0.64676  1.0000
  C   C136      1.0  0.74203  0.70435  0.66572  1.0000
  C   C137      1.0  0.70411  0.66643  0.74157  1.0000
  C   C138      1.0  0.72307  0.64746  0.74157  1.0000
  C   C139      1.0  0.74203  0.64747  0.72261  1.0000
  C   C140      1.0  0.74203  0.66643  0.70365  1.0000
  C   C141      1.0  0.66619  0.70435  0.74158  1.0000
  C   C142      1.0  0.64722  0.72331  0.74158  1.0000
  C   C143      1.0  0.64722  0.74227  0.72262  1.0000
  C   C144      1.0  0.66618  0.74227  0.70365  1.0000
  H   H43       1.0  0.68988  0.75650  0.66573  1.0000
  O   O43       1.0  0.72306  0.75934  0.62970  1.0000
  O   O44       1.0  0.75909  0.72331  0.62969  1.0000
  H   H44       1.0  0.75625  0.69013  0.66572  1.0000
  H   H45       1.0  0.68989  0.66643  0.75580  1.0000
  O   O45       1.0  0.72308  0.63040  0.75864  1.0000
  O   O46       1.0  0.75910  0.63040  0.72261  1.0000
  H   H46       1.0  0.75625  0.66643  0.68942  1.0000
  H   H47       1.0  0.66619  0.69013  0.75580  1.0000
  O   O47       1.0  0.63016  0.72331  0.75865  1.0000
  O   O48       1.0  0.63015  0.75934  0.72262  1.0000
  H   H48       1.0  0.66618  0.75650  0.68943  1.0000
  C   C145      1.0  0.21394  0.21420  0.52702  1.0000
  C   C146      1.0  0.23036  0.23062  0.51361  1.0000
  C   C147      1.0  0.23036  0.23062  0.48680  1.0000
  C   C148      1.0  0.21394  0.21420  0.47339  1.0000
  C   C149      1.0  0.19752  0.19778  0.48680  1.0000
  C   C150      1.0  0.19752  0.19778  0.51361  1.0000
  C   C151      1.0  0.21394  0.21420  0.44657  1.0000
  C   C152      1.0  0.23036  0.23062  0.43317  1.0000
  C   C153      1.0  0.24679  0.24704  0.44657  1.0000
  C   C154      1.0  0.24679  0.24704  0.47339  1.0000
  C   C155      1.0  0.21394  0.21420  0.55384  1.0000
  C   C156      1.0  0.23036  0.23062  0.56725  1.0000
  C   C157      1.0  0.24678  0.24704  0.55384  1.0000
  C   C158      1.0  0.24678  0.24704  0.52702  1.0000
  C   C159      1.0  0.18110  0.18136  0.52702  1.0000
  C   C160      1.0  0.16468  0.16493  0.51361  1.0000
  C   C161      1.0  0.16468  0.16493  0.48680  1.0000
  C   C162      1.0  0.18110  0.18136  0.47339  1.0000
  H   H49       1.0  0.20163  0.20188  0.43652  1.0000
  O   O49       1.0  0.23036  0.23062  0.40903  1.0000
  O   O50       1.0  0.26157  0.26182  0.43451  1.0000
  H   H50       1.0  0.25910  0.25936  0.48345  1.0000
  H   H51       1.0  0.20162  0.20188  0.56389  1.0000
  O   O51       1.0  0.23036  0.23062  0.59138  1.0000
  O   O52       1.0  0.26156  0.26182  0.56591  1.0000
  H   H52       1.0  0.25910  0.25936  0.51697  1.0000
  H   H53       1.0  0.18110  0.18136  0.54713  1.0000
  O   O53       1.0  0.14990  0.15015  0.52568  1.0000
  O   O54       1.0  0.14990  0.15015  0.47473  1.0000
  H   H54       1.0  0.18110  0.18136  0.45328  1.0000
  C   C163      1.0  0.77100  0.23063  0.51362  1.0000
  C   C164      1.0  0.78742  0.21421  0.52702  1.0000
  C   C165      1.0  0.80384  0.19779  0.51362  1.0000
  C   C166      1.0  0.80384  0.19779  0.48680  1.0000
  C   C167      1.0  0.78742  0.21421  0.47339  1.0000
  C   C168      1.0  0.77100  0.23063  0.48680  1.0000
  C   C169      1.0  0.82026  0.18137  0.47339  1.0000
  C   C170      1.0  0.83668  0.16494  0.48680  1.0000
  C   C171      1.0  0.83668  0.16494  0.51361  1.0000
  C   C172      1.0  0.82026  0.18137  0.52702  1.0000
  C   C173      1.0  0.75457  0.24705  0.52703  1.0000
  C   C174      1.0  0.75458  0.24705  0.55384  1.0000
  C   C175      1.0  0.77100  0.23063  0.56725  1.0000
  C   C176      1.0  0.78742  0.21421  0.55384  1.0000
  C   C177      1.0  0.75457  0.24705  0.47339  1.0000
  C   C178      1.0  0.75457  0.24705  0.44658  1.0000
  C   C179      1.0  0.77099  0.23063  0.43317  1.0000
  C   C180      1.0  0.78742  0.21421  0.44657  1.0000
  H   H55       1.0  0.82026  0.18137  0.45328  1.0000
  O   O55       1.0  0.85146  0.15016  0.47473  1.0000
  O   O56       1.0  0.85146  0.15016  0.52568  1.0000
  H   H56       1.0  0.82026  0.18136  0.54714  1.0000
  H   H57       1.0  0.74226  0.25937  0.51697  1.0000
  O   O57       1.0  0.73980  0.26183  0.56591  1.0000
  O   O58       1.0  0.77100  0.23063  0.59138  1.0000
  H   H58       1.0  0.79974  0.20189  0.56390  1.0000
  H   H59       1.0  0.74226  0.25937  0.48345  1.0000
  O   O59       1.0  0.73979  0.26183  0.43451  1.0000
  O   O60       1.0  0.77099  0.23063  0.40903  1.0000
  H   H60       1.0  0.79973  0.20189  0.43652  1.0000
  C   C181      1.0  0.77094  0.77121  0.48680  1.0000
  C   C182      1.0  0.78736  0.78764  0.47339  1.0000
  C   C183      1.0  0.80379  0.80406  0.48680  1.0000
  C   C184      1.0  0.80379  0.80406  0.51361  1.0000
  C   C185      1.0  0.78737  0.78764  0.52702  1.0000
  C   C186      1.0  0.77094  0.77121  0.51362  1.0000
  C   C187      1.0  0.82021  0.82048  0.52702  1.0000
  C   C188      1.0  0.83663  0.83690  0.51361  1.0000
  C   C189      1.0  0.83663  0.83690  0.48680  1.0000
  C   C190      1.0  0.82021  0.82048  0.47339  1.0000
  C   C191      1.0  0.75452  0.75479  0.47339  1.0000
  C   C192      1.0  0.75452  0.75479  0.44657  1.0000
  C   C193      1.0  0.77094  0.77121  0.43317  1.0000
  C   C194      1.0  0.78736  0.78764  0.44657  1.0000
  C   C195      1.0  0.75452  0.75479  0.52702  1.0000
  C   C196      1.0  0.75452  0.75479  0.55384  1.0000
  C   C197      1.0  0.77094  0.77121  0.56725  1.0000
  C   C198      1.0  0.78737  0.78764  0.55384  1.0000
  H   H61       1.0  0.82021  0.82048  0.54713  1.0000
  O   O61       1.0  0.85141  0.85168  0.52568  1.0000
  O   O62       1.0  0.85141  0.85168  0.47473  1.0000
  H   H62       1.0  0.82021  0.82048  0.45328  1.0000
  H   H63       1.0  0.74220  0.74248  0.48345  1.0000
  O   O63       1.0  0.73974  0.74001  0.43451  1.0000
  O   O64       1.0  0.77094  0.77121  0.40903  1.0000
  H   H64       1.0  0.79968  0.79995  0.43652  1.0000
  H   H65       1.0  0.74220  0.74248  0.51697  1.0000
  O   O65       1.0  0.73974  0.74001  0.56591  1.0000
  O   O66       1.0  0.77095  0.77121  0.59138  1.0000
  H   H66       1.0  0.79968  0.79995  0.56390  1.0000
  C   C199      1.0  0.21398  0.78765  0.52702  1.0000
  C   C200      1.0  0.23041  0.77123  0.51361  1.0000
  C   C201      1.0  0.23041  0.77123  0.48680  1.0000
  C   C202      1.0  0.21399  0.78765  0.47339  1.0000
  C   C203      1.0  0.19756  0.80407  0.48680  1.0000
  C   C204      1.0  0.19756  0.80407  0.51361  1.0000
  C   C205      1.0  0.21399  0.78765  0.44657  1.0000
  C   C206      1.0  0.23041  0.77123  0.43316  1.0000
  C   C207      1.0  0.24683  0.75481  0.44657  1.0000
  C   C208      1.0  0.24683  0.75481  0.47339  1.0000
  C   C209      1.0  0.21398  0.78765  0.55384  1.0000
  C   C210      1.0  0.23041  0.77123  0.56725  1.0000
  C   C211      1.0  0.24683  0.75481  0.55384  1.0000
  C   C212      1.0  0.24683  0.75481  0.52702  1.0000
  C   C213      1.0  0.18114  0.82050  0.52702  1.0000
  C   C214      1.0  0.16472  0.83692  0.51361  1.0000
  C   C215      1.0  0.16472  0.83692  0.48680  1.0000
  C   C216      1.0  0.18114  0.82050  0.47339  1.0000
  H   H67       1.0  0.20167  0.79997  0.43652  1.0000
  O   O67       1.0  0.23041  0.77123  0.40903  1.0000
  O   O68       1.0  0.26161  0.74003  0.43451  1.0000
  H   H68       1.0  0.25914  0.74249  0.48345  1.0000
  H   H69       1.0  0.20167  0.79997  0.56389  1.0000
  O   O69       1.0  0.23040  0.77123  0.59138  1.0000
  O   O70       1.0  0.26161  0.74003  0.56591  1.0000
  H   H70       1.0  0.25914  0.74249  0.51697  1.0000
  H   H71       1.0  0.18114  0.82050  0.54713  1.0000
  O   O71       1.0  0.14994  0.85170  0.52568  1.0000
  O   O72       1.0  0.14994  0.85170  0.47473  1.0000
  H   H72       1.0  0.18114  0.82050  0.45328  1.0000
  C   C217      1.0  0.47386  0.21419  0.21352  1.0000
  C   C218      1.0  0.48727  0.23061  0.22994  1.0000
  C   C219      1.0  0.51408  0.23061  0.22994  1.0000
  C   C220      1.0  0.52749  0.21419  0.21352  1.0000
  C   C221      1.0  0.51408  0.19777  0.19710  1.0000
  C   C222      1.0  0.48727  0.19777  0.19710  1.0000
  C   C223      1.0  0.55431  0.21419  0.21352  1.0000
  C   C224      1.0  0.56772  0.23061  0.22994  1.0000
  C   C225      1.0  0.55431  0.24703  0.24636  1.0000
  C   C226      1.0  0.52749  0.24703  0.24636  1.0000
  C   C227      1.0  0.44704  0.21419  0.21352  1.0000
  C   C228      1.0  0.43363  0.23061  0.22994  1.0000
  C   C229      1.0  0.44704  0.24703  0.24636  1.0000
  C   C230      1.0  0.47386  0.24703  0.24636  1.0000
  C   C231      1.0  0.47386  0.18135  0.18067  1.0000
  C   C232      1.0  0.48727  0.16493  0.16425  1.0000
  C   C233      1.0  0.51408  0.16493  0.16425  1.0000
  C   C234      1.0  0.52749  0.18135  0.18067  1.0000
  H   H73       1.0  0.56436  0.20188  0.20120  1.0000
  O   O73       1.0  0.59185  0.23061  0.22994  1.0000
  O   O74       1.0  0.56638  0.26181  0.26114  1.0000
  H   H74       1.0  0.51743  0.25935  0.25868  1.0000
  H   H75       1.0  0.43698  0.20188  0.20120  1.0000
  O   O75       1.0  0.40950  0.23061  0.22994  1.0000
  O   O76       1.0  0.43497  0.26181  0.26114  1.0000
  H   H76       1.0  0.48391  0.25935  0.25868  1.0000
  H   H77       1.0  0.45375  0.18135  0.18067  1.0000
  O   O77       1.0  0.47520  0.15015  0.14947  1.0000
  O   O78       1.0  0.52615  0.15015  0.14947  1.0000
  H   H78       1.0  0.54760  0.18135  0.18068  1.0000
  C   C235      1.0  0.77095  0.51432  0.22991  1.0000
  C   C236      1.0  0.78737  0.52773  0.21349  1.0000
  C   C237      1.0  0.80379  0.51432  0.19706  1.0000
  C   C238      1.0  0.80379  0.48751  0.19707  1.0000
  C   C239      1.0  0.78737  0.47410  0.21349  1.0000
  C   C240      1.0  0.77095  0.48751  0.22991  1.0000
  C   C241      1.0  0.82022  0.47410  0.18064  1.0000
  C   C242      1.0  0.83664  0.48751  0.16422  1.0000
  C   C243      1.0  0.83664  0.51432  0.16422  1.0000
  C   C244      1.0  0.82022  0.52773  0.18064  1.0000
  C   C245      1.0  0.75453  0.52773  0.24633  1.0000
  C   C246      1.0  0.75453  0.55455  0.24633  1.0000
  C   C247      1.0  0.77095  0.56796  0.22990  1.0000
  C   C248      1.0  0.78737  0.55455  0.21348  1.0000
  C   C249      1.0  0.75453  0.47410  0.24633  1.0000
  C   C250      1.0  0.75453  0.44728  0.24633  1.0000
  C   C251      1.0  0.77095  0.43387  0.22991  1.0000
  C   C252      1.0  0.78737  0.44728  0.21349  1.0000
  H   H79       1.0  0.82022  0.45399  0.18065  1.0000
  O   O79       1.0  0.85142  0.47544  0.14944  1.0000
  O   O80       1.0  0.85142  0.52639  0.14944  1.0000
  H   H80       1.0  0.82021  0.54784  0.18064  1.0000
  H   H81       1.0  0.74221  0.51768  0.25865  1.0000
  O   O81       1.0  0.73975  0.56662  0.26111  1.0000
  O   O82       1.0  0.77095  0.59209  0.22990  1.0000
  H   H82       1.0  0.79969  0.56461  0.20117  1.0000
  H   H83       1.0  0.74221  0.48416  0.25865  1.0000
  O   O83       1.0  0.73975  0.43521  0.26111  1.0000
  O   O84       1.0  0.77095  0.40974  0.22991  1.0000
  H   H84       1.0  0.79969  0.43723  0.20117  1.0000
  C   C253      1.0  0.51408  0.77121  0.22989  1.0000
  C   C254      1.0  0.52749  0.78763  0.21347  1.0000
  C   C255      1.0  0.51408  0.80405  0.19705  1.0000
  C   C256      1.0  0.48727  0.80405  0.19705  1.0000
  C   C257      1.0  0.47386  0.78763  0.21347  1.0000
  C   C258      1.0  0.48727  0.77121  0.22989  1.0000
  C   C259      1.0  0.47386  0.82047  0.18063  1.0000
  C   C260      1.0  0.48727  0.83690  0.16421  1.0000
  C   C261      1.0  0.51408  0.83690  0.16421  1.0000
  C   C262      1.0  0.52749  0.82047  0.18063  1.0000
  C   C263      1.0  0.52749  0.75479  0.24631  1.0000
  C   C264      1.0  0.55431  0.75479  0.24631  1.0000
  C   C265      1.0  0.56772  0.77121  0.22989  1.0000
  C   C266      1.0  0.55431  0.78763  0.21347  1.0000
  C   C267      1.0  0.47386  0.75479  0.24631  1.0000
  C   C268      1.0  0.44704  0.75479  0.24631  1.0000
  C   C269      1.0  0.43363  0.77121  0.22989  1.0000
  C   C270      1.0  0.44704  0.78763  0.21347  1.0000
  H   H85       1.0  0.45375  0.82047  0.18063  1.0000
  O   O85       1.0  0.47520  0.85168  0.14943  1.0000
  O   O86       1.0  0.52615  0.85168  0.14943  1.0000
  H   H86       1.0  0.54760  0.82047  0.18063  1.0000
  H   H87       1.0  0.51743  0.74247  0.25863  1.0000
  O   O87       1.0  0.56637  0.74001  0.26109  1.0000
  O   O88       1.0  0.59185  0.77121  0.22989  1.0000
  H   H88       1.0  0.56436  0.79995  0.20115  1.0000
  H   H89       1.0  0.48391  0.74247  0.25863  1.0000
  O   O89       1.0  0.43497  0.74001  0.26109  1.0000
  O   O90       1.0  0.40950  0.77121  0.22989  1.0000
  H   H90       1.0  0.43699  0.79995  0.20115  1.0000
  C   C271      1.0  0.21398  0.47410  0.21347  1.0000
  C   C272      1.0  0.23040  0.48751  0.22989  1.0000
  C   C273      1.0  0.23040  0.51432  0.22989  1.0000
  C   C274      1.0  0.21398  0.52773  0.21347  1.0000
  C   C275      1.0  0.19756  0.51432  0.19705  1.0000
  C   C276      1.0  0.19756  0.48751  0.19705  1.0000
  C   C277      1.0  0.21398  0.55455  0.21347  1.0000
  C   C278      1.0  0.23040  0.56796  0.22989  1.0000
  C   C279      1.0  0.24683  0.55455  0.24631  1.0000
  C   C280      1.0  0.24682  0.52773  0.24631  1.0000
  C   C281      1.0  0.21398  0.44728  0.21347  1.0000
  C   C282      1.0  0.23040  0.43387  0.22990  1.0000
  C   C283      1.0  0.24682  0.44728  0.24632  1.0000
  C   C284      1.0  0.24682  0.47410  0.24632  1.0000
  C   C285      1.0  0.18114  0.47410  0.18063  1.0000
  C   C286      1.0  0.16472  0.48751  0.16421  1.0000
  C   C287      1.0  0.16472  0.51432  0.16421  1.0000
  C   C288      1.0  0.18114  0.52773  0.18063  1.0000
  H   H91       1.0  0.20167  0.56461  0.20115  1.0000
  O   O91       1.0  0.23040  0.59209  0.22989  1.0000
  O   O92       1.0  0.26161  0.56662  0.26109  1.0000
  H   H92       1.0  0.25914  0.51768  0.25863  1.0000
  H   H93       1.0  0.20166  0.43723  0.20116  1.0000
  O   O93       1.0  0.23040  0.40974  0.22990  1.0000
  O   O94       1.0  0.26160  0.43522  0.26110  1.0000
  H   H94       1.0  0.25914  0.48416  0.25863  1.0000
  H   H95       1.0  0.18114  0.45399  0.18063  1.0000
  O   O95       1.0  0.14994  0.47544  0.14943  1.0000
  O   O96       1.0  0.14994  0.52639  0.14943  1.0000
  H   H96       1.0  0.18114  0.54784  0.18063  1.0000
  C   C289      1.0  0.51408  0.77121  0.77052  1.0000
  C   C290      1.0  0.52749  0.78763  0.78695  1.0000
  C   C291      1.0  0.51408  0.80406  0.80337  1.0000
  C   C292      1.0  0.48727  0.80406  0.80337  1.0000
  C   C293      1.0  0.47386  0.78763  0.78695  1.0000
  C   C294      1.0  0.48727  0.77121  0.77052  1.0000
  C   C295      1.0  0.47386  0.82048  0.81979  1.0000
  C   C296      1.0  0.48727  0.83690  0.83621  1.0000
  C   C297      1.0  0.51408  0.83690  0.83621  1.0000
  C   C298      1.0  0.52749  0.82048  0.81979  1.0000
  C   C299      1.0  0.52749  0.75479  0.75410  1.0000
  C   C300      1.0  0.55431  0.75479  0.75410  1.0000
  C   C301      1.0  0.56772  0.77121  0.77052  1.0000
  C   C302      1.0  0.55431  0.78763  0.78695  1.0000
  C   C303      1.0  0.47386  0.75479  0.75410  1.0000
  C   C304      1.0  0.44704  0.75479  0.75410  1.0000
  C   C305      1.0  0.43363  0.77121  0.77052  1.0000
  C   C306      1.0  0.44704  0.78763  0.78694  1.0000
  H   H97       1.0  0.45375  0.82048  0.81979  1.0000
  O   O97       1.0  0.47520  0.85168  0.85099  1.0000
  O   O98       1.0  0.52615  0.85168  0.85099  1.0000
  H   H98       1.0  0.54760  0.82048  0.81979  1.0000
  H   H99       1.0  0.51743  0.74247  0.74179  1.0000
  O   O99       1.0  0.56637  0.74001  0.73932  1.0000
  O   O100      1.0  0.59185  0.77121  0.77052  1.0000
  H   H100      1.0  0.56436  0.79995  0.79926  1.0000
  H   H101      1.0  0.48391  0.74247  0.74179  1.0000
  O   O101      1.0  0.43497  0.74001  0.73932  1.0000
  O   O102      1.0  0.40950  0.77121  0.77052  1.0000
  H   H102      1.0  0.43699  0.79995  0.79926  1.0000
  C   C307      1.0  0.21395  0.47410  0.78693  1.0000
  C   C308      1.0  0.23037  0.48751  0.77051  1.0000
  C   C309      1.0  0.23037  0.51432  0.77051  1.0000
  C   C310      1.0  0.21395  0.52773  0.78693  1.0000
  C   C311      1.0  0.19753  0.51432  0.80335  1.0000
  C   C312      1.0  0.19753  0.48751  0.80335  1.0000
  C   C313      1.0  0.21395  0.55455  0.78693  1.0000
  C   C314      1.0  0.23037  0.56796  0.77051  1.0000
  C   C315      1.0  0.24679  0.55455  0.75409  1.0000
  C   C316      1.0  0.24679  0.52773  0.75409  1.0000
  C   C317      1.0  0.21395  0.44728  0.78693  1.0000
  C   C318      1.0  0.23037  0.43387  0.77051  1.0000
  C   C319      1.0  0.24679  0.44728  0.75408  1.0000
  C   C320      1.0  0.24679  0.47410  0.75409  1.0000
  C   C321      1.0  0.18110  0.47410  0.81977  1.0000
  C   C322      1.0  0.16468  0.48751  0.83619  1.0000
  C   C323      1.0  0.16468  0.51432  0.83619  1.0000
  C   C324      1.0  0.18110  0.52773  0.81977  1.0000
  H   H103      1.0  0.20163  0.56460  0.79925  1.0000
  O   O103      1.0  0.23037  0.59209  0.77051  1.0000
  O   O104      1.0  0.26157  0.56662  0.73931  1.0000
  H   H104      1.0  0.25911  0.51768  0.74177  1.0000
  H   H105      1.0  0.20163  0.43722  0.79924  1.0000
  O   O105      1.0  0.23037  0.40974  0.77051  1.0000
  O   O106      1.0  0.26157  0.43521  0.73931  1.0000
  H   H106      1.0  0.25911  0.48415  0.74177  1.0000
  H   H107      1.0  0.18110  0.45398  0.81977  1.0000
  O   O107      1.0  0.14990  0.47544  0.85097  1.0000
  O   O108      1.0  0.14990  0.52639  0.85097  1.0000
  H   H108      1.0  0.18111  0.54784  0.81977  1.0000
  C   C325      1.0  0.47386  0.21418  0.78690  1.0000
  C   C326      1.0  0.48727  0.23061  0.77048  1.0000
  C   C327      1.0  0.51408  0.23061  0.77048  1.0000
  C   C328      1.0  0.52749  0.21418  0.78690  1.0000
  C   C329      1.0  0.51408  0.19776  0.80332  1.0000
  C   C330      1.0  0.48727  0.19776  0.80332  1.0000
  C   C331      1.0  0.55431  0.21418  0.78690  1.0000
  C   C332      1.0  0.56772  0.23061  0.77048  1.0000
  C   C333      1.0  0.55431  0.24703  0.75406  1.0000
  C   C334      1.0  0.52749  0.24703  0.75406  1.0000
  C   C335      1.0  0.44704  0.21418  0.78690  1.0000
  C   C336      1.0  0.43363  0.23061  0.77048  1.0000
  C   C337      1.0  0.44704  0.24703  0.75406  1.0000
  C   C338      1.0  0.47386  0.24703  0.75406  1.0000
  C   C339      1.0  0.47386  0.18134  0.81975  1.0000
  C   C340      1.0  0.48727  0.16492  0.83617  1.0000
  C   C341      1.0  0.51408  0.16492  0.83617  1.0000
  C   C342      1.0  0.52749  0.18134  0.81974  1.0000
  H   H109      1.0  0.56436  0.20187  0.79922  1.0000
  O   O109      1.0  0.59185  0.23061  0.77048  1.0000
  O   O110      1.0  0.56638  0.26181  0.73928  1.0000
  H   H110      1.0  0.51744  0.25934  0.74174  1.0000
  H   H111      1.0  0.43699  0.20187  0.79922  1.0000
  O   O111      1.0  0.40950  0.23061  0.77048  1.0000
  O   O112      1.0  0.43497  0.26181  0.73928  1.0000
  H   H112      1.0  0.48392  0.25934  0.74174  1.0000
  H   H113      1.0  0.45375  0.18134  0.81975  1.0000
  O   O113      1.0  0.47520  0.15014  0.85095  1.0000
  O   O114      1.0  0.52615  0.15014  0.85095  1.0000
  H   H114      1.0  0.54760  0.18134  0.81974  1.0000
  C   C343      1.0  0.77099  0.48751  0.77050  1.0000
  C   C344      1.0  0.78741  0.47410  0.78692  1.0000
  C   C345      1.0  0.80383  0.48751  0.80334  1.0000
  C   C346      1.0  0.80383  0.51432  0.80334  1.0000
  C   C347      1.0  0.78741  0.52773  0.78692  1.0000
  C   C348      1.0  0.77099  0.51432  0.77050  1.0000
  C   C349      1.0  0.82025  0.52773  0.81976  1.0000
  C   C350      1.0  0.83667  0.51432  0.83618  1.0000
  C   C351      1.0  0.83667  0.48751  0.83618  1.0000
  C   C352      1.0  0.82025  0.47410  0.81976  1.0000
  C   C353      1.0  0.75456  0.47410  0.75407  1.0000
  C   C354      1.0  0.75456  0.44728  0.75407  1.0000
  C   C355      1.0  0.77099  0.43387  0.77049  1.0000
  C   C356      1.0  0.78741  0.44728  0.78692  1.0000
  C   C357      1.0  0.75456  0.52773  0.75408  1.0000
  C   C358      1.0  0.75456  0.55455  0.75408  1.0000
  C   C359      1.0  0.77098  0.56796  0.77050  1.0000
  C   C360      1.0  0.78741  0.55455  0.78692  1.0000
  H   H115      1.0  0.82025  0.54784  0.81976  1.0000
  O   O115      1.0  0.85145  0.52639  0.85096  1.0000
  O   O116      1.0  0.85145  0.47544  0.85096  1.0000
  H   H116      1.0  0.82025  0.45399  0.81976  1.0000
  H   H117      1.0  0.74225  0.48415  0.74176  1.0000
  O   O117      1.0  0.73979  0.43521  0.73929  1.0000
  O   O118      1.0  0.77099  0.40974  0.77049  1.0000
  H   H118      1.0  0.79973  0.43722  0.79923  1.0000
  H   H119      1.0  0.74225  0.51768  0.74176  1.0000
  O   O119      1.0  0.73978  0.56662  0.73930  1.0000
  O   O120      1.0  0.77098  0.59209  0.77050  1.0000
  H   H120      1.0  0.79972  0.56461  0.79924  1.0000
  C   C361      1.0  0.90157  0.94407  0.50044  1.0000
  C   C362      1.0  0.89406  0.91539  0.50038  1.0000
  C   C363      1.0  0.91513  0.89431  0.50029  1.0000
  C   C364      1.0  0.94382  0.90182  0.50024  1.0000
  C   C365      1.0  0.95034  0.93042  0.50030  1.0000
  C   C366      1.0  0.93018  0.95058  0.50041  1.0000
  C   C367      1.0  0.94361  0.97660  0.50044  1.0000
  N   N1        1.0  0.97275  0.97299  0.50035  1.0000
  C   C368      1.0  0.97637  0.94385  0.50026  1.0000
  N   N2        1.0  0.00010  0.92951  0.50014  1.0000
  C   C369      1.0  0.02497  0.94384  0.50016  1.0000
  N   N3        1.0  0.02858  0.97299  0.50024  1.0000
  C   C370      1.0  0.05772  0.97660  0.50029  1.0000
  C   C371      1.0  0.07116  0.95058  0.50020  1.0000
  C   C372      1.0  0.05101  0.93042  0.50013  1.0000
  N   N4        1.0  0.02859  0.02882  0.50030  1.0000
  C   C373      1.0  0.05773  0.02521  0.50038  1.0000
  N   N5        1.0  0.07206  0.00010  0.50041  1.0000
  C   C374      1.0  0.07116  0.05124  0.50032  1.0000
  C   C375      1.0  0.05100  0.07139  0.50022  1.0000
  C   C376      1.0  0.02497  0.05796  0.50019  1.0000
  C   C377      1.0  0.05753  0.90182  0.50009  1.0000
  C   C378      1.0  0.08622  0.89432  0.50009  1.0000
  C   C379      1.0  0.10728  0.91541  0.50011  1.0000
  C   C380      1.0  0.09976  0.94409  0.50019  1.0000
  C   C381      1.0  0.05750  0.09999  0.50017  1.0000
  C   C382      1.0  0.08619  0.10751  0.50025  1.0000
  C   C383      1.0  0.10726  0.08643  0.50034  1.0000
  C   C384      1.0  0.09976  0.05775  0.50037  1.0000
  N   N6        1.0  0.97276  0.02882  0.50027  1.0000
  C   C385      1.0  0.97637  0.05796  0.50015  1.0000
  N   N7        1.0  0.00010  0.07229  0.50006  1.0000
  C   C386      1.0  0.95035  0.07139  0.50016  1.0000
  C   C387      1.0  0.93019  0.05124  0.50029  1.0000
  C   C388      1.0  0.94362  0.02520  0.50037  1.0000
  C   C389      1.0  0.90159  0.05775  0.50029  1.0000
  C   C390      1.0  0.89409  0.08644  0.50017  1.0000
  C   C391      1.0  0.91517  0.10751  0.50009  1.0000
  C   C392      1.0  0.94386  0.09999  0.50008  1.0000
  N   N8        1.0  0.92929  0.00010  0.50050  1.0000
  H   H121      1.0  0.88759  0.95853  0.50050  1.0000
  O   O121      1.0  0.87003  0.90888  0.50040  1.0000
  O   O122      1.0  0.90861  0.87028  0.50025  1.0000
  H   H122      1.0  0.95828  0.88783  0.50017  1.0000
  H   H123      1.0  0.04308  0.88782  0.50006  1.0000
  O   O123      1.0  0.09274  0.87029  0.50008  1.0000
  O   O124      1.0  0.13132  0.90890  0.50007  1.0000
  H   H124      1.0  0.11374  0.95855  0.50021  1.0000
  H   H125      1.0  0.04305  0.11398  0.50010  1.0000
  O   O125      1.0  0.09270  0.13154  0.50026  1.0000
  O   O126      1.0  0.13129  0.09295  0.50039  1.0000
  H   H126      1.0  0.11375  0.04330  0.50043  1.0000
  H   H127      1.0  0.88760  0.04331  0.50035  1.0000
  O   O127      1.0  0.87006  0.09297  0.50013  1.0000
  O   O128      1.0  0.90867  0.13155  0.50003  1.0000
  H   H128      1.0  0.95832  0.11397  0.50001  1.0000
  Ni  Ni1       1.0  0.00010  0.00010  0.50034  1.0000
  C   C393      1.0  0.50043  0.05776  0.09931  1.0000
  C   C394      1.0  0.50050  0.08645  0.10682  1.0000
  C   C395      1.0  0.50059  0.10752  0.08575  1.0000
  C   C396      1.0  0.50063  0.10002  0.05706  1.0000
  C   C397      1.0  0.50058  0.07141  0.05055  1.0000
  C   C398      1.0  0.50046  0.05126  0.07070  1.0000
  C   C399      1.0  0.50043  0.02523  0.05727  1.0000
  N   N9        1.0  0.50052  0.02885  0.02813  1.0000
  C   C400      1.0  0.50061  0.05799  0.02452  1.0000
  N   N10       1.0  0.50073  0.07232  0.00010  1.0000
  C   C401      1.0  0.50072  0.05799  0.97591  1.0000
  N   N11       1.0  0.50063  0.02885  0.97230  1.0000
  C   C402      1.0  0.50059  0.02523  0.94316  1.0000
  C   C403      1.0  0.50067  0.05125  0.92973  1.0000
  C   C404      1.0  0.50074  0.07142  0.94988  1.0000
  N   N12       1.0  0.50057  0.97302  0.97230  1.0000
  C   C405      1.0  0.50050  0.97663  0.94316  1.0000
  N   N13       1.0  0.50046  0.00010  0.92883  1.0000
  C   C406      1.0  0.50055  0.95060  0.92973  1.0000
  C   C407      1.0  0.50066  0.93044  0.94989  1.0000
  C   C408      1.0  0.50069  0.94388  0.97591  1.0000
  C   C409      1.0  0.50078  0.10002  0.94336  1.0000
  C   C410      1.0  0.50078  0.10751  0.91467  1.0000
  C   C411      1.0  0.50076  0.08643  0.89360  1.0000
  C   C412      1.0  0.50069  0.05775  0.90112  1.0000
  C   C413      1.0  0.50070  0.90184  0.94338  1.0000
  C   C414      1.0  0.50062  0.89433  0.91470  1.0000
  C   C415      1.0  0.50054  0.91540  0.89362  1.0000
  C   C416      1.0  0.50050  0.94409  0.90113  1.0000
  N   N14       1.0  0.50060  0.97302  0.02813  1.0000
  C   C417      1.0  0.50072  0.94388  0.02451  1.0000
  N   N15       1.0  0.50081  0.92955  0.00010  1.0000
  C   C418      1.0  0.50071  0.93044  0.05053  1.0000
  C   C419      1.0  0.50059  0.95060  0.07069  1.0000
  C   C420      1.0  0.50050  0.97663  0.05727  1.0000
  C   C421      1.0  0.50059  0.94408  0.09930  1.0000
  C   C422      1.0  0.50071  0.91539  0.10679  1.0000
  C   C423      1.0  0.50079  0.89432  0.08571  1.0000
  C   C424      1.0  0.50079  0.90184  0.05703  1.0000
  N   N16       1.0  0.50037  0.00010  0.07160  1.0000
  H   H129      1.0  0.50037  0.04330  0.11329  1.0000
  O   O129      1.0  0.50048  0.09296  0.13086  1.0000
  O   O130      1.0  0.50062  0.13156  0.09227  1.0000
  H   H130      1.0  0.50070  0.11401  0.04261  1.0000
  H   H131      1.0  0.50081  0.11401  0.95780  1.0000
  O   O131      1.0  0.50079  0.13154  0.90814  1.0000
  O   O132      1.0  0.50081  0.09293  0.86956  1.0000
  H   H132      1.0  0.50066  0.04329  0.88714  1.0000
  H   H133      1.0  0.50077  0.88786  0.95783  1.0000
  O   O133      1.0  0.50062  0.87030  0.90819  1.0000
  O   O134      1.0  0.50048  0.90889  0.86959  1.0000
  H   H134      1.0  0.50045  0.95854  0.88714  1.0000
  H   H135      1.0  0.50052  0.95853  0.11329  1.0000
  O   O135      1.0  0.50075  0.90887  0.13082  1.0000
  O   O136      1.0  0.50085  0.87028  0.09222  1.0000
  H   H136      1.0  0.50086  0.88786  0.04257  1.0000
  Ni  Ni2       1.0  0.50054  0.00010  0.00010  1.0000
  C   C425      1.0  0.90158  0.50115  0.05705  1.0000
  C   C426      1.0  0.89406  0.50109  0.08573  1.0000
  C   C427      1.0  0.91513  0.50100  0.10681  1.0000
  C   C428      1.0  0.94383  0.50095  0.09930  1.0000
  C   C429      1.0  0.95034  0.50101  0.07070  1.0000
  C   C430      1.0  0.93018  0.50112  0.05054  1.0000
  C   C431      1.0  0.94361  0.50115  0.02452  1.0000
  N   N17       1.0  0.97275  0.50106  0.02813  1.0000
  C   C432      1.0  0.97637  0.50097  0.05727  1.0000
  N   N18       1.0  0.00010  0.50085  0.07161  1.0000
  C   C433      1.0  0.02497  0.50087  0.05728  1.0000
  N   N19       1.0  0.02858  0.50095  0.02814  1.0000
  C   C434      1.0  0.05772  0.50100  0.02452  1.0000
  C   C435      1.0  0.07116  0.50091  0.05054  1.0000
  C   C436      1.0  0.05101  0.50084  0.07070  1.0000
  N   N20       1.0  0.02859  0.50101  0.97231  1.0000
  C   C437      1.0  0.05773  0.50109  0.97592  1.0000
  N   N21       1.0  0.07206  0.50112  0.00010  1.0000
  C   C438      1.0  0.07116  0.50103  0.94989  1.0000
  C   C439      1.0  0.05100  0.50092  0.92973  1.0000
  C   C440      1.0  0.02497  0.50089  0.94317  1.0000
  C   C441      1.0  0.05753  0.50080  0.09930  1.0000
  C   C442      1.0  0.08622  0.50080  0.10680  1.0000
  C   C443      1.0  0.10728  0.50082  0.08572  1.0000
  C   C444      1.0  0.09976  0.50090  0.05703  1.0000
  C   C445      1.0  0.05750  0.50088  0.90113  1.0000
  C   C446      1.0  0.08618  0.50096  0.89362  1.0000
  C   C447      1.0  0.10726  0.50105  0.91469  1.0000
  C   C448      1.0  0.09976  0.50108  0.94338  1.0000
  N   N22       1.0  0.97276  0.50098  0.97230  1.0000
  C   C449      1.0  0.97637  0.50086  0.94317  1.0000
  N   N23       1.0  0.00010  0.50077  0.92884  1.0000
  C   C450      1.0  0.95035  0.50087  0.92973  1.0000
  C   C451      1.0  0.93019  0.50100  0.94988  1.0000
  C   C452      1.0  0.94362  0.50108  0.97592  1.0000
  C   C453      1.0  0.90159  0.50100  0.94337  1.0000
  C   C454      1.0  0.89409  0.50088  0.91468  1.0000
  C   C455      1.0  0.91517  0.50080  0.89361  1.0000
  C   C456      1.0  0.94386  0.50079  0.90113  1.0000
  N   N24       1.0  0.92929  0.50121  0.00010  1.0000
  H   H137      1.0  0.88759  0.50121  0.04259  1.0000
  O   O137      1.0  0.87003  0.50111  0.09224  1.0000
  O   O138      1.0  0.90861  0.50096  0.13084  1.0000
  H   H138      1.0  0.95828  0.50088  0.11329  1.0000
  H   H139      1.0  0.04308  0.50077  0.11330  1.0000
  O   O139      1.0  0.09275  0.50079  0.13083  1.0000
  O   O140      1.0  0.13132  0.50078  0.09222  1.0000
  H   H140      1.0  0.11374  0.50092  0.04258  1.0000
  H   H141      1.0  0.04305  0.50081  0.88714  1.0000
  O   O141      1.0  0.09270  0.50097  0.86959  1.0000
  O   O142      1.0  0.13129  0.50110  0.90818  1.0000
  H   H142      1.0  0.11375  0.50114  0.95783  1.0000
  H   H143      1.0  0.88760  0.50106  0.95782  1.0000
  O   O143      1.0  0.87006  0.50083  0.90816  1.0000
  O   O144      1.0  0.90866  0.50074  0.86957  1.0000
  H   H144      1.0  0.95831  0.50072  0.88715  1.0000
  Ni  Ni3       1.0  0.00010  0.50105  0.00010  1.0000
  Zn  Zn1       1.0  0.25311  0.25337  0.39625  1.0000
  Zn  Zn2       1.0  0.74824  0.25337  0.39625  1.0000
  Zn  Zn3       1.0  0.74821  0.74847  0.39625  1.0000
  Zn  Zn4       1.0  0.25314  0.74848  0.39624  1.0000
  Zn  Zn5       1.0  0.25314  0.74848  0.60417  1.0000
  Zn  Zn6       1.0  0.25311  0.25336  0.60417  1.0000
  Zn  Zn7       1.0  0.74825  0.25337  0.60417  1.0000
  Zn  Zn8       1.0  0.74821  0.74847  0.60417  1.0000
  Zn  Zn9       1.0  0.39671  0.25336  0.25267  1.0000
  Zn  Zn10      1.0  0.74822  0.39696  0.25266  1.0000
  Zn  Zn11      1.0  0.60463  0.74847  0.25264  1.0000
  Zn  Zn12      1.0  0.25314  0.60488  0.25264  1.0000
  Zn  Zn13      1.0  0.39671  0.74847  0.74778  1.0000
  Zn  Zn14      1.0  0.25311  0.39695  0.74776  1.0000
  Zn  Zn15      1.0  0.60464  0.25335  0.74774  1.0000
  Zn  Zn16      1.0  0.74824  0.60488  0.74776  1.0000
  Zn  Zn17      1.0  0.25313  0.39695  0.25265  1.0000
  Zn  Zn18      1.0  0.25311  0.60488  0.74777  1.0000
  Zn  Zn19      1.0  0.39671  0.25335  0.74775  1.0000
  Zn  Zn20      1.0  0.74824  0.39695  0.74776  1.0000
  Zn  Zn21      1.0  0.60463  0.74847  0.74778  1.0000
  Zn  Zn22      1.0  0.74821  0.60488  0.25265  1.0000
  Zn  Zn23      1.0  0.39672  0.74847  0.25264  1.0000
  Zn  Zn24      1.0  0.60463  0.25336  0.25268  1.0000
  Zn  Zn25      1.0  0.13095  0.13120  0.50026  1.0000
  Zn  Zn26      1.0  0.87041  0.13121  0.50014  1.0000
  Zn  Zn27      1.0  0.87037  0.87063  0.50026  1.0000
  Zn  Zn28      1.0  0.13099  0.87065  0.50014  1.0000
  Zn  Zn29      1.0  0.50061  0.13120  0.13052  1.0000
  Zn  Zn30      1.0  0.87037  0.50097  0.13049  1.0000
  Zn  Zn31      1.0  0.50074  0.87063  0.13047  1.0000
  Zn  Zn32      1.0  0.13099  0.50085  0.13047  1.0000
  Zn  Zn33      1.0  0.50061  0.87064  0.86994  1.0000
  Zn  Zn34      1.0  0.13095  0.50097  0.86993  1.0000
  Zn  Zn35      1.0  0.50074  0.13119  0.86990  1.0000
  Zn  Zn36      1.0  0.87041  0.50085  0.86991  1.0000
